geometry optimzed in LAMMPS
_audit_creation_date              2020-11-30 
_audit_creation_method            'lammps2cif' 
_symmetry_space_group_name_H-M    'P1' 
_symmetry_Int_Tables_number       1 
_symmetry_cell_setting            triclinic 
loop_ 
_symmetry_equiv_pos_as_xyz 
  x,y,z 
_cell_length_a                    51.56103032 
_cell_length_b                    51.53168833158687 
_cell_length_c                    30.732053201223827 
_cell_angle_alpha                 89.86285929777382 
_cell_angle_beta                  90.02218125171805 
_cell_angle_gamma                 119.9844938454015 
loop_ 
_atom_site_label 
_atom_site_type_symbol 
_atom_site_fract_x 
_atom_site_fract_y 
_atom_site_fract_z 
_atom_site_charge 
C1          C  0.21377751  0.22643509  0.28674473     0.03700
C2          C  0.23663408  0.25100562  0.30899254    -0.12500
C3          C  0.26432009  0.27018633  0.28896839     0.01200
C4          C  0.26716296  0.26647273  0.24407720    -0.11000
C5          C  0.24309907  0.24425952  0.22025282     0.03600
C6          C  0.21682618  0.22363716  0.24193899    -0.10400
H7          H  0.23280651  0.25434131  0.34258454     0.09200
H8          H  0.28796257  0.28080968  0.22720389     0.06800
H9          H  0.19926268  0.20504745  0.22409831     0.06600
C10         C  0.22479927  0.21370016  0.82556233     0.03700
C11         C  0.22693316  0.21338195  0.87104772    -0.12500
C12         C  0.25241962  0.23572216  0.89258008     0.01200
C13         C  0.27572563  0.25843952  0.86789355    -0.11000
C14         C  0.27364280  0.25918701  0.82239434     0.03600
C15         C  0.24819931  0.23652894  0.80148559    -0.10400
H16         H  0.20839050  0.19624812  0.88962840     0.09200
H17         H  0.29531631  0.27591590  0.88420007     0.06800
H18         H  0.24661753  0.23652110  0.76631669     0.06600
C19         C  0.24510736  0.47493646  0.29131375     0.03700
C20         C  0.22045120  0.47481028  0.31093569    -0.12500
C21         C  0.19778350  0.47478071  0.28554686     0.01200
C22         C  0.19989424  0.47475862  0.24006797    -0.11000
C23         C  0.22467379  0.47548730  0.21991783     0.03600
C24         C  0.24711590  0.47537050  0.24572816    -0.10400
H25         H  0.21889204  0.47472801  0.34611236     0.09200
H26         H  0.18230814  0.47438922  0.22027279     0.06800
H27         H  0.26618525  0.47571951  0.23033893     0.06600
C28         C  0.24779692  0.47640111  0.82211954     0.03700
C29         C  0.24910441  0.47749468  0.86769824    -0.12500
C30         C  0.22696045  0.47916608  0.89200508     0.01200
C31         C  0.20320165  0.47963003  0.87033308    -0.11000
C32         C  0.20191471  0.47915136  0.82474194     0.03600
C33         C  0.22440438  0.47778300  0.80080545    -0.10400
H34         H  0.26754079  0.47727174  0.88431819     0.09200
H35         H  0.18577638  0.48047549  0.88889448     0.06800
H36         H  0.22332018  0.47713477  0.76556979     0.06600
C37         C  0.48901943  0.23932869  0.28453529     0.03700
C38         C  0.49180830  0.24016814  0.23901695    -0.12500
C39         C  0.49027413  0.21580264  0.21644645     0.01200
C40         C  0.48613673  0.19049752  0.23951181    -0.11000
C41         C  0.48324481  0.18930511  0.28490622     0.03600
C42         C  0.48452883  0.21365686  0.30722698    -0.10400
H43         H  0.49427702  0.25937451  0.22097771     0.09200
H44         H  0.48496417  0.17166654  0.22211025     0.06800
H45         H  0.48253680  0.21280452  0.34237918     0.06600
C46         C  0.49331277  0.23975414  0.81696126     0.03700
C47         C  0.49251215  0.21495545  0.79673344    -0.12500
C48         C  0.49058686  0.19118994  0.82148768     0.01200
C49         C  0.48979855  0.19243579  0.86693365    -0.11000
C50         C  0.49068002  0.21705426  0.88788983     0.03600
C51         C  0.49248647  0.24072157  0.86264086    -0.10400
H52         H  0.49310858  0.21400830  0.76153547     0.09200
H53         H  0.48847811  0.17411280  0.88606467     0.06800
H54         H  0.49323371  0.25984202  0.87846349     0.06600
O55         O  0.41401838  0.99513965  0.51390882    -0.87700
C56         C  0.07085840  0.06787111  0.61739669     1.12400
O57         O  0.45434306  0.47387610  0.55706223    -1.35500
O58         O  0.04561076  0.07124242  0.50904987    -0.89100
O59         O  0.39344002  0.44628677  0.50880582    -0.89800
O60         O  0.45703870  0.44793055  0.46277436    -0.78600
O61         O  0.48017424  0.03344330  0.51912397    -1.00700
C62         C  0.04252163  0.48320595  0.47223798     1.22400
O63         O  0.48990678  0.44718748  0.55221786    -1.35600
Mn64       Mn  0.48725036  0.47524611  0.60225240     1.82100
O65         O  0.01838939  0.48184566  0.46172517    -0.77700
O66         O  0.07359473  0.04959339  0.50306534    -0.87100
C67         C  0.04440435  0.47973204  0.63152087     1.13500
C68         C  0.06632436  0.06873756  0.49080437     1.08200
O69         O  0.45752978  0.44128438  0.64535288    -0.78600
O70         O  0.01664576  0.00983127  0.55549878    -1.32300
O71         O  0.43139321  0.41460062  0.59299896    -0.97900
C72         C  0.49501953  0.39594557  0.48506631     1.07000
Mn73       Mn  0.06063239  0.01668333  0.55178114     1.48600
O74         O  0.46939573  0.38927731  0.49985036    -0.87000
Mn75       Mn  0.41369846  0.43194435  0.55475594     1.49600
O76         O  0.41615222  0.99200713  0.61078043    -0.90900
C77         C  0.48024924  0.03021280  0.47984394     1.20100
C78         C  0.39668877  0.46608859  0.62347831     1.12200
Mn79       Mn  0.48666964  0.47831221  0.50832426     1.81000
O80         O  0.04900832  0.48168273  0.59239473    -0.96100
Mn81       Mn  0.44778888  0.01110305  0.56096061     1.49300
C82         C  0.39537428  0.47114060  0.49849890     1.08700
Mn83       Mn  0.03200876  0.44876108  0.55010511     1.49900
C84         C  0.49577129  0.39309458  0.61064853     1.11600
O85         O  0.43066922  0.41653166  0.51141342    -1.01900
O86         O  0.07718918  0.04929366  0.60029819    -0.91500
C87         C  0.43505436  0.42321949  0.47296522     1.22900
O88         O  0.04762080  0.48315640  0.51084600    -1.02300
O89         O  0.04807540  0.06976906  0.60636600    -0.89700
O90         O  0.02006527  0.41505928  0.59675271    -0.89300
O91         O  0.39326146  0.44246204  0.60525700    -0.89300
Mn92       Mn  0.01453592  0.05002776  0.55882955     1.47900
O93         O  0.02002588  0.47682225  0.64443998    -0.77800
C94         C  0.43520189  0.41761152  0.63212702     1.16000
O95         O  0.48324774  0.00892789  0.46631615    -0.76500
O96         O  0.48528843  0.00393672  0.64895352    -0.76100
Mn97       Mn  0.45222202  0.40336833  0.55035799     1.51100
O98         O  0.01935193  0.41721738  0.50008606    -0.88500
O99         O  0.48173778  0.03134113  0.60080684    -0.96000
O100        O  0.46995830  0.38678824  0.59707386    -0.91000
C101        C  0.48299714  0.02630634  0.63924113     1.13800
C102        C  0.01124541  0.14580866  0.74742813    -0.01500
C103        C  0.48732161  0.11648957  0.75438621     0.07100
C104        C  0.46473480  0.11158017  0.78413293    -0.07500
C105        C  0.46550112  0.13555414  0.80661045     0.04500
C106        C  0.48940947  0.16501017  0.79962976    -0.14700
C107        C  0.01220364  0.16976580  0.77017782    -0.08000
C108        C  0.48387089  0.09125225  0.72738619     0.05500
C109        C  0.49842494  0.07548892  0.73936938    -0.09100
C110        C  0.49732576  0.05304079  0.71233287     0.00500
C111        C  0.48189096  0.04665051  0.67222279     0.00300
C112        C  0.46638814  0.06177198  0.66143862    -0.12700
C113        C  0.46713267  0.08375373  0.68868716     0.00800
C114        C  0.51354379  0.03822979  0.72551960     0.40100
C115        C  0.45114437  0.09889493  0.67580812     0.36700
C116        C  0.03431585  0.15190304  0.71577882     0.36500
C117        C  0.44061858  0.12957926  0.83458686     0.37200
N118        N  0.52670078  0.02656227  0.73631583    -0.43600
N119        N  0.43828898  0.11100973  0.66565258    -0.44000
N120        N  0.42065244  0.12485069  0.85691800    -0.41400
N121        N  0.05269813  0.15675393  0.69024859    -0.42800
H122        H  0.03057138  0.19232241  0.76451942     0.13300
H123        H  0.44597926  0.08909444  0.78865749     0.09800
H124        H  0.51113107  0.08117673  0.76933631     0.10900
H125        H  0.45396785  0.05671628  0.63124381     0.16700
C126        C  0.50511274  0.33072267  0.65737134    -0.01500
C127        C  0.49730974  0.33065032  0.70141410     0.07100
C128        C  0.49121925  0.35281112  0.71622103    -0.07500
C129        C  0.49156890  0.37409390  0.68734621     0.04500
C130        C  0.49761817  0.37297577  0.64291670    -0.14700
C131        C  0.50493203  0.35165363  0.62843988    -0.08000
C132        C  0.49523789  0.30752328  0.73234684     0.05500
C133        C  0.01624834  0.31590281  0.76606328    -0.09100
C134        C  0.01577660  0.29440512  0.79464532     0.00500
C135        C  0.49386077  0.26387182  0.78964323     0.00300
C136        C  0.47235891  0.25575345  0.75657524    -0.12700
C137        C  0.47278828  0.27722353  0.72820427     0.00800
C138        C  0.03873544  0.30414606  0.82755012     0.40100
C139        C  0.44973021  0.26769252  0.69544682     0.36700
C140        C  0.51394901  0.30993879  0.64140415     0.36500
C141        C  0.48675919  0.39746384  0.70418561     0.37200
N142        N  0.05709157  0.31203598  0.85402196    -0.43600
N143        N  0.43120099  0.26000034  0.66927408    -0.44000
N144        N  0.48346773  0.41648443  0.71801254    -0.41400
N145        N  0.52121732  0.29341343  0.62867720    -0.42800
H146        H  0.51027213  0.35123241  0.59443065     0.13300
H147        H  0.48600013  0.35332421  0.75024324     0.09800
H148        H  0.03344935  0.33922213  0.76943009     0.10900
H149        H  0.45512524  0.23246763  0.75289868     0.16700
C150        C  0.97734304  0.06726970  0.37429606    -0.01500
C151        C  0.47617521  0.09248236  0.38935521     0.07100
C152        C  0.47461540  0.09632560  0.43415222    -0.07500
C153        C  0.47525343  0.07617701  0.46412513     0.04500
C154        C  0.47777559  0.05143126  0.44932917    -0.14700
C155        C  0.97835588  0.04717546  0.40417167    -0.08000
C156        C  0.47728671  0.11572151  0.35942945     0.05500
C157        C  0.45278270  0.12051236  0.35790749    -0.09100
C158        C  0.45394245  0.14387763  0.33296403     0.00500
C159        C  0.48010689  0.16306965  0.30929697     0.00300
C160        C  0.00435442  0.15790146  0.31006090    -0.12700
C161        C  0.00324040  0.13461081  0.33508125     0.00800
C162        C  0.42791418  0.14745638  0.33161055     0.40100
C163        C  0.02948408  0.13141281  0.33686143     0.36700
C164        C  0.97703781  0.06134267  0.32836356     0.36500
C165        C  0.47364092  0.08201422  0.50971872     0.37200
N166        N  0.40694894  0.15015296  0.33041297    -0.43600
N167        N  0.05046906  0.12876639  0.33822378    -0.44000
N168        N  0.47236518  0.08682835  0.54618601    -0.41400
N169        N  0.97673276  0.05660234  0.29152520    -0.42800
H170        H  0.97972071  0.02816567  0.39202268     0.13300
H171        H  0.47341999  0.11555530  0.44580026     0.09800
H172        H  0.43282502  0.10612794  0.37666208     0.10900
H173        H  0.02456051  0.17269588  0.29205953     0.16700
C174        C  0.47190482  0.34542381  0.38652582    -0.01500
C175        C  0.49284467  0.33540805  0.38710376     0.07100
C176        C  0.01626544  0.34762605  0.41747785    -0.07500
C177        C  0.01813401  0.36826956  0.44864469     0.04500
C178        C  0.49630084  0.37722434  0.44951573    -0.14700
C179        C  0.47375901  0.36609771  0.41763975    -0.08000
C180        C  0.49017748  0.31115546  0.35811497     0.05500
C181        C  0.01333266  0.31742126  0.32861279    -0.09100
C182        C  0.01330239  0.29457409  0.30392635     0.00500
C183        C  0.48963416  0.26468238  0.30852336     0.00300
C184        C  0.46626278  0.25856623  0.33768417    -0.12700
C185        C  0.46641759  0.28139338  0.36251431     0.00800
C186        C  0.03871066  0.30230354  0.27614005     0.40100
C187        C  0.44268748  0.27346955  0.39375833     0.36700
C188        C  0.44828897  0.33477001  0.35452694     0.36500
C189        C  0.04141284  0.37813333  0.48111084     0.37200
N190        N  0.05927521  0.30888224  0.25409461    -0.43600
N191        N  0.42366123  0.26712291  0.41877723    -0.44000
N192        N  0.06004025  0.38593427  0.50715101    -0.41400
N193        N  0.42927439  0.32629073  0.32902414    -0.42800
H194        H  0.45737348  0.37335108  0.41728954     0.13300
H195        H  0.03246204  0.34004932  0.41794689     0.09800
H196        H  0.03189283  0.34018763  0.32568836     0.10900
H197        H  0.44798135  0.23575107  0.34149804     0.16700
C198        C  0.46435898  0.19582329  0.10026554    -0.01500
C199        C  0.49015104  0.21600038  0.07660675     0.07100
C200        C  0.01625087  0.23589528  0.09929787    -0.07500
C201        C  0.01695702  0.23590533  0.14483126     0.04500
C202        C  0.49105883  0.21599404  0.16838833    -0.14700
C203        C  0.46502876  0.19597919  0.14579592    -0.08000
C204        C  0.49055682  0.21651296  0.02825908     0.05500
C205        C  0.47101961  0.22334698  0.00572296    -0.09100
C206        C  0.47068810  0.22387052  0.96012141     0.00500
C207        C  0.49061793  0.21796576  0.93625671     0.00300
C208        C  0.51032824  0.21143194  0.95901762    -0.12700
C209        C  0.51029279  0.21043457  0.00447373     0.00800
C210        C  0.44882271  0.22923378  0.93885142     0.40100
C211        C  0.03001522  0.20210403  0.02589176     0.36700
C212        C  0.43717911  0.17431503  0.07864555     0.36500
C213        C  0.04480664  0.25565691  0.16648257     0.37200
N214        N  0.43128846  0.23356770  0.92190226    -0.43600
N215        N  0.04578101  0.19536438  0.04301013    -0.44000
N216        N  0.06736878  0.27134929  0.18339735    -0.41400
N217        N  0.41533919  0.15705768  0.06144623    -0.42800
H218        H  0.44512585  0.18053895  0.16385499     0.13300
H219        H  0.03618441  0.25134650  0.08130932     0.09800
H220        H  0.45579281  0.22802605  0.02387314     0.10900
H221        H  0.02571607  0.20683525  0.94114609     0.16700
C222        C  0.30795004  0.49302654  0.73826566    -0.01500
C223        C  0.31384735  0.46940324  0.74515075     0.07100
C224        C  0.29869043  0.44852272  0.77830136    -0.07500
C225        C  0.27728760  0.45051777  0.80397422     0.04500
C226        C  0.27093060  0.47389844  0.79664874    -0.14700
C227        C  0.28658647  0.49506729  0.76386647    -0.08000
C228        C  0.33426941  0.46513860  0.71595566     0.05500
C229        C  0.36390955  0.47527732  0.72884747    -0.09100
C230        C  0.38435806  0.47406169  0.69999760     0.00500
C231        C  0.37521651  0.46306853  0.65746815     0.00300
C232        C  0.34512971  0.45124926  0.64562441    -0.12700
C233        C  0.32462078  0.45205262  0.67459760     0.00800
C234        C  0.41406525  0.48281428  0.71526627     0.40100
C235        C  0.29430028  0.94163266  0.65784957     0.36700
C236        C  0.32363838  0.01484155  0.70698168     0.36500
C237        C  0.26112149  0.42746534  0.83608577     0.37200
N238        N  0.43756730  0.48909299  0.72814616    -0.43600
N239        N  0.26992913  0.93282828  0.64641097    -0.44000
N240        N  0.24813833  0.40901528  0.86184298    -0.41400
N241        N  0.33660836  0.03347527  0.68146306    -0.42800
H242        H  0.28143156  0.01121710  0.76011341     0.13300
H243        H  0.30301968  0.43018263  0.78330020     0.09800
H244        H  0.37112142  0.48448426  0.76115761     0.10900
H245        H  0.33836169  0.94397663  0.61039412     0.16700
C246        C  0.16257383  0.50647724  0.74949103    -0.01500
C247        C  0.13250582  0.48329459  0.75260648     0.07100
C248        C  0.12493943  0.45952337  0.78168150    -0.07500
C249        C  0.14706754  0.45811416  0.80643580     0.04500
C250        C  0.17739059  0.48062563  0.80174582    -0.14700
C251        C  0.18474132  0.50484968  0.77365038    -0.08000
C252        C  0.10935212  0.48207076  0.72262386     0.05500
C253        C  0.11157611  0.47700123  0.67840906    -0.09100
C254        C  0.09056693  0.47564719  0.64837942     0.00500
C255        C  0.06670147  0.47983893  0.66243712     0.00300
C256        C  0.06418730  0.48420477  0.70708849    -0.12700
C257        C  0.08525499  0.48538322  0.73710816     0.00800
C258        C  0.09367255  0.46874138  0.60380640     0.40100
C259        C  0.08170535  0.98966246  0.78261939     0.36700
C260        C  0.17329546  0.03340247  0.72411512     0.36500
C261        C  0.13826126  0.43270996  0.83487570     0.37200
N262        N  0.09610406  0.46293263  0.56823382    -0.43600
N263        N  0.07833451  0.99238613  0.81920126    -0.44000
N264        N  0.13110848  0.41236160  0.85773856    -0.41400
N265        N  0.18090802  0.05484839  0.70351777    -0.42800
H266        H  0.20856187  0.02080822  0.77159344     0.13300
H267        H  0.10186295  0.44160764  0.78400770     0.09800
H268        H  0.12976772  0.47380335  0.66739163     0.10900
H269        H  0.04587042  0.98678919  0.71878601     0.16700
C270        C  0.36495864  0.49839269  0.40789252    -0.01500
C271        C  0.33493945  0.47502342  0.40503033     0.07100
C272        C  0.32508301  0.44984372  0.43205795    -0.07500
C273        C  0.34436712  0.44787736  0.46229420     0.04500
C274        C  0.37434571  0.47148236  0.46576824    -0.14700
C275        C  0.38420537  0.49662354  0.43841618    -0.08000
C276        C  0.31315761  0.47631563  0.37463748     0.05500
C277        C  0.30001512  0.45442874  0.34213178    -0.09100
C278        C  0.27805748  0.45368718  0.31441256     0.00500
C279        C  0.26901705  0.47531561  0.31882624     0.00300
C280        C  0.28225121  0.49723458  0.35133570    -0.12700
C281        C  0.30393974  0.49775245  0.37933879     0.00800
C282        C  0.26407007  0.42957068  0.28335499     0.40100
C283        C  0.31536013  0.51963166  0.41386171     0.36700
C284        C  0.37237437  0.02554865  0.38642002     0.36500
C285        C  0.33222190  0.42220353  0.49097066     0.37200
N286        N  0.25282335  0.41018511  0.25855653    -0.43600
N287        N  0.31466595  0.02723853  0.44791015    -0.40000
N288        N  0.32243291  0.40170301  0.51409318    -0.41400
N289        N  0.38026352  0.04758708  0.36720269    -0.42800
H290        H  0.40375103  0.01640334  0.44613090     0.13300
H291        H  0.30196645  0.43190713  0.43014643     0.09800
H292        H  0.30660311  0.43757916  0.33891970     0.10900
H293        H  0.27532267  0.51378635  0.35520622     0.16700
C294        C  0.07225899  0.46437772  0.37151315    -0.01500
C295        C  0.10300529  0.47776519  0.38116250     0.07100
C296        C  0.11407033  0.49430568  0.41941590    -0.07500
C297        C  0.09496392  0.49710628  0.44877557     0.04500
C298        C  0.06390994  0.48343256  0.43972233    -0.14700
C299        C  0.05298428  0.46751868  0.40057945    -0.08000
C300        C  0.12437181  0.47440988  0.35289104     0.05500
C301        C  0.13978168  0.49590020  0.32052095    -0.09100
C302        C  0.16335155  0.49611147  0.29749687     0.00500
C303        C  0.17177343  0.47443961  0.30691087     0.00300
C304        C  0.15572834  0.45250699  0.33863254    -0.12700
C305        C  0.13223216  0.45236964  0.36159649     0.00800
C306        C  0.17905145  0.01538362  0.26633919     0.40100
C307        C  0.11702397  0.42991468  0.39480242     0.36700
C308        C  0.05998292  0.44661185  0.33277498     0.36500
C309        C  0.10813049  0.51420007  0.48784808     0.37200
N310        N  0.19294518  0.03433485  0.24166914    -0.43600
N311        N  0.10489866  0.41187573  0.42138956    -0.44000
N312        N  0.12025334  0.03223453  0.51292505    -0.41400
N313        N  0.05013649  0.43227966  0.30177392    -0.42800
H314        H  0.02921831  0.45651673  0.39351696     0.13300
H315        H  0.13778561  0.50466844  0.42670022     0.09800
H316        H  0.13408641  0.51319325  0.31440039     0.10900
H317        H  0.16185950  0.43566478  0.34589080     0.16700
C318        C  0.20308809  0.45480196  0.10212542    -0.01500
C319        C  0.22865721  0.47672283  0.07998289     0.07100
C320        C  0.25292605  0.49853738  0.10385231    -0.07500
C321        C  0.25214171  0.49854563  0.14941327     0.04500
C322        C  0.22679841  0.47616448  0.17173839    -0.14700
C323        C  0.20242306  0.45453328  0.14762982    -0.08000
C324        C  0.22984992  0.47792690  0.03184262     0.05500
C325        C  0.22814343  0.50109088  0.01049715    -0.09100
C326        C  0.22737749  0.50208127  0.96501598     0.00500
C327        C  0.22836447  0.47953965  0.94019591     0.00300
C328        C  0.23093731  0.45684032  0.96170345    -0.12700
C329        C  0.23170307  0.45589032  0.00716197     0.00800
C330        C  0.22130067  0.01970163  0.94519948     0.40100
C331        C  0.23454272  0.43223260  0.02781621     0.36700
C332        C  0.17690735  0.43308743  0.07869907     0.36500
C333        C  0.27688639  0.52262476  0.17234855     0.37200
N334        N  0.21958100  0.03918602  0.92936948    -0.43600
N335        N  0.23681616  0.41327619  0.04438318    -0.44000
N336        N  0.29662670  0.54195299  0.19082271    -0.41400
N337        N  0.15596529  0.41585291  0.05969753    -0.42800
H338        H  0.18272416  0.43750189  0.16442706     0.13300
H339        H  0.27233339  0.51578499  0.08678840     0.09800
H340        H  0.22201098  0.01052307  0.02969307     0.10900
H341        H  0.23195180  0.43957979  0.94291135     0.16700
C342        C  0.35127424  0.31177419  0.77780559    -0.01500
C343        C  0.34567348  0.32922077  0.74802403     0.07100
C344        C  0.31634902  0.32375588  0.74278706    -0.07500
C345        C  0.29263700  0.30124950  0.76676289     0.04500
C346        C  0.29814931  0.28368420  0.79674612    -0.14700
C347        C  0.32763393  0.28940923  0.80214299    -0.08000
C348        C  0.36962622  0.35183621  0.71966353     0.05500
C349        C  0.36961696  0.34493127  0.67572983    -0.09100
C350        C  0.39116743  0.36548977  0.64707179     0.00500
C351        C  0.41329024  0.39419070  0.66223820     0.00300
C352        C  0.41340139  0.40085647  0.70663754    -0.12700
C353        C  0.39191472  0.37991659  0.73533870     0.00800
C354        C  0.38986036  0.35607637  0.60246007     0.40100
C355        C  0.39272154  0.38788013  0.78049825     0.36700
C356        C  0.38087723  0.31566724  0.78248313     0.36500
C357        C  0.26300014  0.29700303  0.76041739     0.37200
N358        N  0.38868656  0.34839031  0.56679385    -0.43600
N359        N  0.39338793  0.39418613  0.81675731    -0.44000
N360        N  0.23923314  0.29350036  0.75513414    -0.41400
N361        N  0.40463436  0.31881380  0.78590479    -0.42800
H362        H  0.33207267  0.27585787  0.82466237     0.13300
H363        H  0.31198454  0.33703120  0.71961879     0.09800
H364        H  0.35257462  0.32314744  0.66376009     0.10900
H365        H  0.42997854  0.42267563  0.71890176     0.16700
C366        C  0.15619994  0.17902129  0.75367698    -0.01500
C367        C  0.15047440  0.14930167  0.74942676     0.07100
C368        C  0.16791421  0.14035117  0.77333982    -0.07500
C369        C  0.19144555  0.16065418  0.79975529     0.04500
C370        C  0.19790536  0.19059797  0.80256894    -0.14700
C371        C  0.17981052  0.19933875  0.78006537    -0.08000
C372        C  0.12926092  0.12826667  0.71644376     0.05500
C373        C  0.14085624  0.11813036  0.68356028    -0.09100
C374        C  0.12234808  0.09837798  0.65143158     0.00500
C375        C  0.09131440  0.08856373  0.65130074     0.00300
C376        C  0.07979817  0.09909893  0.68397153    -0.12700
C377        C  0.09828370  0.11813363  0.71699974     0.00800
C378        C  0.13627291  0.08965699  0.61816468     0.40100
C379        C  0.08480487  0.12595016  0.75197890     0.36700
C380        C  0.13931115  0.18973631  0.72970111     0.36500
C381        C  0.20984643  0.15070460  0.82120213     0.37200
N382        N  0.14754795  0.08273643  0.59162410    -0.43600
N383        N  0.07406403  0.13220532  0.78012967    -0.44000
N384        N  0.22455777  0.14251812  0.83800236    -0.41400
N385        N  0.12568713  0.19841133  0.71090521    -0.42800
H386        H  0.18474662  0.22237442  0.78214264     0.13300
H387        H  0.16379838  0.11765016  0.77004848     0.09800
H388        H  0.16467005  0.12591759  0.68283359     0.10900
H389        H  0.05623776  0.09207544  0.68416842     0.16700
C390        C  0.33643315  0.34271618  0.31572712    -0.01500
C391        C  0.34111379  0.33873200  0.36002509     0.07100
C392        C  0.31959036  0.31267449  0.38122483    -0.07500
C393        C  0.29559119  0.28968034  0.35880473     0.04500
C394        C  0.29022515  0.29375571  0.31463038    -0.14700
C395        C  0.31075956  0.32092030  0.29417736    -0.08000
C396        C  0.36787758  0.36095661  0.38539280     0.05500
C397        C  0.37724787  0.39170252  0.38295174    -0.09100
C398        C  0.40107802  0.41271176  0.40830061     0.00500
C399        C  0.41390439  0.40283068  0.44009850     0.00300
C400        C  0.40472014  0.37232253  0.44272753    -0.12700
C401        C  0.38316942  0.35168644  0.41432325     0.00800
C402        C  0.41160962  0.44413624  0.40143517     0.40100
C403        C  0.37771931  0.32131730  0.41529835     0.36700
C404        C  0.35793079  0.36831447  0.29090432     0.36500
C405        C  0.27871206  0.26173372  0.38204057     0.37200
N406        N  0.42054221  0.46934428  0.39510611    -0.43600
N407        N  0.37343409  0.29702967  0.41624730    -0.44000
N408        N  0.26580848  0.23973599  0.40178251    -0.41400
N409        N  0.37505623  0.38886635  0.27096165    -0.42800
H410        H  0.30716100  0.32517838  0.26078511     0.13300
H411        H  0.32207632  0.30965701  0.41562455     0.09800
H412        H  0.36571959  0.39945909  0.36177350     0.10900
H413        H  0.41482695  0.36459926  0.46665065     0.16700
C414        C  0.17526930  0.16799066  0.37430898    -0.01500
C415        C  0.14480037  0.15457849  0.36278602     0.07100
C416        C  0.13664694  0.16560152  0.32651600    -0.07500
C417        C  0.15849618  0.18923996  0.30130840     0.04500
C418        C  0.18909273  0.20189089  0.31210790    -0.14700
C419        C  0.19695621  0.19077560  0.34848459    -0.08000
C420        C  0.12140325  0.13027368  0.39000936     0.05500
C421        C  0.10119953  0.13583824  0.41281915    -0.09100
C422        C  0.08206548  0.11569906  0.44438185     0.00500
C423        C  0.08322924  0.08929481  0.45401609     0.00300
C424        C  0.10209775  0.08292250  0.42867385    -0.12700
C425        C  0.12090344  0.10295185  0.39685681     0.00800
C426        C  0.06261536  0.12371999  0.46721343     0.40100
C427        C  0.13997076  0.09525503  0.37226484     0.36700
C428        C  0.18479405  0.15966736  0.41357105     0.36500
C429        C  0.14892078  0.20086504  0.26585035     0.37200
N430        N  0.04713793  0.13040642  0.48526120    -0.43600
N431        N  0.15530524  0.08907281  0.35275137    -0.44000
N432        N  0.14120694  0.21024114  0.23752489    -0.41400
N433        N  0.19236447  0.15308825  0.44514536    -0.42800
H434        H  0.22034266  0.20001552  0.35686553     0.13300
H435        H  0.11317725  0.15589531  0.31814855     0.09800
H436        H  0.10128688  0.15669598  0.40723493     0.10900
H437        H  0.10266621  0.06240977  0.43417092     0.16700
C438        C  0.26080429  0.26581813  0.00720815    -0.01500
C439        C  0.25346437  0.24032905  0.03294550     0.07100
C440        C  0.24720517  0.21353710  0.01233270    -0.07500
C441        C  0.24765062  0.21170804  0.96685333     0.04500
C442        C  0.25374147  0.23687370  0.94099387    -0.14700
C443        C  0.26068304  0.26385379  0.96177818    -0.08000
C444        C  0.25113238  0.24094665  0.08119860     0.05500
C445        C  0.23062071  0.24827541  0.09932673    -0.09100
C446        C  0.22780320  0.24945948  0.14445476     0.00500
C447        C  0.24538261  0.24277594  0.17240903     0.00300
C448        C  0.26590193  0.23542150  0.15447535    -0.12700
C449        C  0.26884160  0.23437629  0.10922170     0.00800
C450        C  0.20763874  0.25881169  0.16136386     0.40100
C451        C  0.29066878  0.22726199  0.09233610     0.36700
C452        C  0.26897329  0.29437895  0.02666670     0.36500
C453        C  0.24283080  0.18407052  0.94784169     0.37200
N454        N  0.19167166  0.26653407  0.17495377    -0.43600
N455        N  0.30810435  0.22149379  0.07873450    -0.44000
N456        N  0.23912332  0.16182767  0.93312284    -0.41400
N457        N  0.27556804  0.31727313  0.04227491    -0.42800
H458        H  0.26561000  0.28341437  0.94243076     0.13300
H459        H  0.24176567  0.19391338  0.03186915     0.09800
H460        H  0.21690076  0.25329575  0.07808282     0.10900
H461        H  0.27964481  0.23054240  0.17588623     0.16700
C462        C  0.21451276  0.72568542  0.28769092     0.03700
C463        C  0.23780372  0.74994747  0.30987221    -0.12500
C464        C  0.26524063  0.76921276  0.28921550     0.01200
C465        C  0.26759477  0.76559447  0.24420587    -0.11000
C466        C  0.24327868  0.74347294  0.22071391     0.03600
C467        C  0.21706747  0.72303820  0.24270535    -0.10400
H468        H  0.23449879  0.75305159  0.34379926     0.09200
H469        H  0.28827012  0.77992079  0.22702260     0.06800
H470        H  0.19918477  0.70463808  0.22499575     0.06600
C471        C  0.22749120  0.71434010  0.82482698     0.03700
C472        C  0.22902848  0.71348881  0.87042128    -0.12500
C473        C  0.25407530  0.73578705  0.89291554     0.01200
C474        C  0.27757037  0.75894466  0.86905698    -0.11000
C475        C  0.27601881  0.76031418  0.82359514     0.03600
C476        C  0.25103761  0.73775693  0.80173281    -0.10400
H477        H  0.21031517  0.69603282  0.88832944     0.09200
H478        H  0.29686798  0.77635386  0.88599015     0.06800
H479        H  0.24993752  0.73832640  0.76655155     0.06600
C480        C  0.24148890  0.96865641  0.29088741     0.03700
C481        C  0.21641817  0.96788530  0.31031434    -0.12500
C482        C  0.19386070  0.96794921  0.28475529     0.01200
C483        C  0.19608946  0.96797197  0.23928523    -0.11000
C484        C  0.22107716  0.96903742  0.21932267     0.03600
C485        C  0.24369781  0.96946275  0.24529009    -0.10400
H486        H  0.21461103  0.96763427  0.34546459     0.09200
H487        H  0.17857007  0.96766288  0.21938325     0.06800
H488        H  0.26313656  0.97062968  0.22990218     0.06600
C489        C  0.24617259  0.97254835  0.82152874     0.03700
C490        C  0.24677809  0.97242599  0.86714234    -0.12500
C491        C  0.22440168  0.97371866  0.89140876     0.01200
C492        C  0.20105774  0.97489560  0.86956651    -0.11000
C493        C  0.20056360  0.97582302  0.82398277     0.03600
C494        C  0.22328702  0.97482139  0.80014948    -0.10400
H495        H  0.26497527  0.97176698  0.88381312     0.09200
H496        H  0.18343725  0.97544067  0.88801002     0.06800
H497        H  0.22284272  0.97527509  0.76489873     0.06600
C498        C  0.49322425  0.74067771  0.28603721     0.03700
C499        C  0.49617069  0.74190196  0.24053936    -0.12500
C500        C  0.49468599  0.71769830  0.21754809     0.01200
C501        C  0.49043673  0.69220298  0.24020133    -0.11000
C502        C  0.48735456  0.69064619  0.28558210     0.03600
C503        C  0.48871190  0.71489301  0.30829771    -0.10400
H504        H  0.49871697  0.76127224  0.22287545     0.09200
H505        H  0.48913491  0.67343283  0.22245522     0.06800
H506        H  0.48658578  0.71381197  0.34343740     0.06600
C507        C  0.49527502  0.74067517  0.81797663     0.03700
C508        C  0.49380900  0.71554802  0.79773159    -0.12500
C509        C  0.49193367  0.69176068  0.82248509     0.01200
C510        C  0.49173724  0.69330275  0.86798223    -0.11000
C511        C  0.49324066  0.71822099  0.88894968     0.03600
C512        C  0.49511630  0.74191338  0.86366971    -0.10400
H513        H  0.49392229  0.71440264  0.76252431     0.09200
H514        H  0.49048825  0.67502750  0.88715590     0.06800
H515        H  0.49637395  0.76126250  0.87950260     0.06600
O516        O  0.41439109  0.49598927  0.51529602    -0.87700
C517        C  0.07137484  0.56717316  0.61843977     1.12400
O518        O  0.45450102  0.97379126  0.55636566    -1.35500
O519        O  0.04602464  0.57092213  0.51011525    -0.89100
O520        O  0.39386147  0.94557193  0.50779309    -0.89800
O521        O  0.45750985  0.94785491  0.46240385    -0.78600
O522        O  0.48056432  0.53369396  0.52022827    -1.00700
C523        C  0.04275000  0.98326874  0.47186047     1.22400
O524        O  0.49054546  0.94765039  0.55200403    -1.35600
Mn525      Mn  0.48766137  0.97576656  0.60164047     1.82100
O526        O  0.01863737  0.98199753  0.46151368    -0.77700
O527        O  0.07399762  0.54923022  0.50433569    -0.87100
C528        C  0.04528844  0.98139642  0.63126401     1.13500
C529        C  0.06682807  0.56846404  0.49209533     1.08200
O530        O  0.45835018  0.94194368  0.64474493    -0.78600
O531        O  0.01655515  0.50939675  0.55632561    -1.32300
O532        O  0.43190468  0.91445937  0.59295713    -0.97900
C533        C  0.49644362  0.89612072  0.48644411     1.07000
Mn534      Mn  0.06039649  0.51585701  0.55264887     1.48600
O535        O  0.47063293  0.88960317  0.50018995    -0.87000
Mn536      Mn  0.41414251  0.93158162  0.55419620     1.49600
O537        O  0.41649920  0.49240512  0.61218012    -0.90900
C538        C  0.48058895  0.53036643  0.48091993     1.20100
C539        C  0.39659875  0.96566248  0.62226693     1.12200
Mn540      Mn  0.48692492  0.97847861  0.50776701     1.81000
O541        O  0.04962028  0.98299088  0.59211621    -0.96100
Mn542      Mn  0.44816730  0.51148175  0.56220794     1.49300
C543        C  0.39534456  0.97015029  0.49705600     1.08700
Mn544      Mn  0.03285409  0.94960911  0.55073857     1.49900
C545        C  0.49672519  0.89410443  0.61184180     1.11600
O546        O  0.43130362  0.91623988  0.51098499    -1.01900
O547        O  0.07714713  0.54813247  0.60158670    -0.91500
C548        C  0.43574736  0.92298157  0.47250841     1.22900
O549        O  0.04827337  0.98362951  0.51044118    -1.02300
O550        O  0.04880487  0.56947823  0.60737261    -0.89700
O551        O  0.02099817  0.91645059  0.59854229    -0.89300
O552        O  0.39347873  0.94205439  0.60439669    -0.89300
Mn553      Mn  0.01498917  0.54989395  0.55993368     1.47900
O554        O  0.02073605  0.97806623  0.64417891    -0.77800
C555        C  0.43613170  0.91801920  0.63203634     1.16000
O556        O  0.48330396  0.50894098  0.46736740    -0.76500
O557        O  0.48535051  0.50356601  0.64988899    -0.76100
Mn558      Mn  0.45309780  0.90356293  0.55035142     1.51100
O559        O  0.02059696  0.91743888  0.50179373    -0.88500
O560        O  0.48222328  0.53138313  0.60198381    -0.96000
O561        O  0.47099172  0.88729714  0.59730476    -0.91000
C562        C  0.48347664  0.52621226  0.64035760     1.13800
C563        C  0.01200295  0.64622622  0.74757274    -0.01500
C564        C  0.48864086  0.61679021  0.75567544     0.07100
C565        C  0.46654124  0.61185722  0.78635749    -0.07500
C566        C  0.46723376  0.63588584  0.80863999     0.04500
C567        C  0.49063148  0.66546737  0.80059114    -0.14700
C568        C  0.01293529  0.67023408  0.77017716    -0.08000
C569        C  0.48508200  0.59141893  0.72879264     0.05500
C570        C  0.50067451  0.57647642  0.73965350    -0.09100
C571        C  0.49936132  0.55392926  0.71257635     0.00500
C572        C  0.48274202  0.54667881  0.67347437     0.00300
C573        C  0.46637250  0.56106988  0.66373103    -0.12700
C574        C  0.46722329  0.58304514  0.69113546     0.00800
C575        C  0.51657070  0.53992774  0.72452759     0.40100
C576        C  0.45017398  0.59730309  0.67944824     0.36700
C577        C  0.03448422  0.65238034  0.71487462     0.36500
C578        C  0.44269715  0.62975230  0.83745438     0.37200
N579        N  0.53056999  0.52895689  0.73431862    -0.43600
N580        N  0.43646843  0.60871622  0.67029199    -0.44000
N581        N  0.42294758  0.62480428  0.86039640    -0.41400
N582        N  0.05240721  0.65730880  0.68852241    -0.42800
H583        H  0.03092253  0.69284635  0.76366647     0.13300
H584        H  0.44815821  0.58927579  0.79174501     0.09800
H585        H  0.51432361  0.58287089  0.76875109     0.10900
H586        H  0.45316163  0.55542765  0.63422899     0.16700
C587        C  0.50426258  0.83056501  0.65831118    -0.01500
C588        C  0.49808155  0.83149124  0.70287365     0.07100
C589        C  0.49337482  0.85454464  0.71792551    -0.07500
C590        C  0.49362011  0.87578148  0.68894539     0.04500
C591        C  0.49848714  0.87393373  0.64422409    -0.14700
C592        C  0.50419047  0.85157142  0.62940849    -0.08000
C593        C  0.49623738  0.80845107  0.73399071     0.05500
C594        C  0.01781396  0.81682640  0.76692860    -0.09100
C595        C  0.01771302  0.79535397  0.79526331     0.00500
C596        C  0.49564526  0.76480888  0.79076804     0.00300
C597        C  0.47358278  0.75670921  0.75857145    -0.12700
C598        C  0.47357964  0.77815682  0.73056416     0.00800
C599        C  0.04116181  0.80513580  0.82740736     0.40100
C600        C  0.44982676  0.76858935  0.69894284     0.36700
C601        C  0.51119343  0.80855627  0.64160243     0.36500
C602        C  0.48931653  0.89948305  0.70578278     0.37200
N603        N  0.05990151  0.81306599  0.85328653    -0.43600
N604        N  0.43074693  0.76086400  0.67366665    -0.44000
N605        N  0.48619387  0.91864456  0.71947459    -0.41400
N606        N  0.51681817  0.79097865  0.62817903    -0.42800
H607        H  0.50835492  0.85039184  0.59510246     0.13300
H608        H  0.48915363  0.85570479  0.75220269     0.09800
H609        H  0.03517924  0.84011680  0.76984927     0.10900
H610        H  0.45618528  0.73345009  0.75535619     0.16700
C611        C  0.97681440  0.56625531  0.37485631    -0.01500
C612        C  0.47729866  0.59240849  0.38941075     0.07100
C613        C  0.47707099  0.59729866  0.43416871    -0.07500
C614        C  0.47743180  0.57723886  0.46454300     0.04500
C615        C  0.47840890  0.55158753  0.45017875    -0.14700
C616        C  0.97767955  0.54631830  0.40512413    -0.08000
C617        C  0.47881156  0.61559340  0.35905470     0.05500
C618        C  0.45557689  0.62230998  0.35956567    -0.09100
C619        C  0.45761568  0.64623224  0.33513179     0.00500
C620        C  0.48327689  0.66387003  0.30950939     0.00300
C621        C  0.00612896  0.65662484  0.30798877    -0.12700
C622        C  0.00425804  0.63291895  0.33283619     0.00800
C623        C  0.43307933  0.65218403  0.33670813     0.40100
C624        C  0.02941356  0.62788223  0.33283485     0.36700
C625        C  0.97492611  0.55917316  0.32913078     0.36500
C626        C  0.47709566  0.58403880  0.51005225     0.37200
N627        N  0.41341988  0.65696270  0.33797354    -0.43600
N628        N  0.04950312  0.62374480  0.33292515    -0.44000
N629        N  0.47677860  0.58954755  0.54647119    -0.41400
N630        N  0.97335864  0.55344940  0.29249001    -0.42800
H631        H  0.97783991  0.52659230  0.39334695     0.13300
H632        H  0.47711209  0.61724681  0.44544063     0.09800
H633        H  0.43603260  0.60912635  0.37978292     0.10900
H634        H  0.02598986  0.67025141  0.28858051     0.16700
C635        C  0.47582924  0.84643458  0.38729472    -0.01500
C636        C  0.49613826  0.83569130  0.38999262     0.07100
C637        C  0.01815889  0.84679575  0.42249395    -0.07500
C638        C  0.01928732  0.86722280  0.45345572     0.04500
C639        C  0.49823956  0.87717934  0.45179021    -0.14700
C640        C  0.47700490  0.86697017  0.41810938    -0.08000
C641        C  0.49402123  0.81170366  0.36099851     0.05500
C642        C  0.01777680  0.81811533  0.33259824    -0.09100
C643        C  0.01782603  0.79549639  0.30742760     0.00500
C644        C  0.49370576  0.76575362  0.31051473     0.00300
C645        C  0.46982896  0.75946601  0.33874610    -0.12700
C646        C  0.46985892  0.78206027  0.36399536     0.00800
C647        C  0.04366060  0.80317668  0.28062858     0.40100
C648        C  0.44551727  0.77404608  0.39415497     0.36700
C649        C  0.45351323  0.83661152  0.35341219     0.36500
C650        C  0.04082816  0.87578501  0.48831242     0.37200
N651        N  0.06452405  0.80958031  0.25935273    -0.43600
N652        N  0.42604090  0.76767703  0.41835404    -0.44000
N653        N  0.05804013  0.88250158  0.51627326    -0.41400
N654        N  0.43554055  0.82875973  0.32637544    -0.42800
H655        H  0.46114523  0.87485111  0.41608452     0.13300
H656        H  0.03375634  0.83852309  0.42471164     0.09800
H657        H  0.03662390  0.84077684  0.33079795     0.10900
H658        H  0.45125105  0.73671572  0.34145933     0.16700
C659        C  0.46876589  0.69802114  0.10132946    -0.01500
C660        C  0.49445216  0.71843501  0.07770995     0.07100
C661        C  0.02051880  0.73840671  0.10040199    -0.07500
C662        C  0.02125210  0.73828336  0.14595387     0.04500
C663        C  0.49542875  0.71814782  0.16947860    -0.14700
C664        C  0.46945510  0.69804817  0.14684648    -0.08000
C665        C  0.49471666  0.71896986  0.02937213     0.05500
C666        C  0.47525724  0.72602738  0.00711458    -0.09100
C667        C  0.47440208  0.72609547  0.96152954     0.00500
C668        C  0.49370599  0.71945946  0.93734824     0.00300
C669        C  0.51336373  0.71270507  0.95984866    -0.12700
C670        C  0.51388640  0.71224017  0.00534155     0.00800
C671        C  0.45258532  0.73170975  0.94065024     0.40100
C672        C  0.03355465  0.70378547  0.02662108     0.36700
C673        C  0.44170923  0.67634755  0.07961890     0.36500
C674        C  0.04905894  0.75807519  0.16767633     0.37200
N675        N  0.43509269  0.73625419  0.92402952    -0.43600
N676        N  0.04926255  0.69696226  0.04372160    -0.44000
N677        N  0.07156514  0.77377920  0.18471856    -0.41400
N678        N  0.42000767  0.65895305  0.06227023    -0.42800
H679        H  0.44962220  0.68240782  0.16486435     0.13300
H680        H  0.04039453  0.75397987  0.08241017     0.09800
H681        H  0.46042208  0.73114107  0.02549402     0.10900
H682        H  0.02828768  0.70756846  0.94176665     0.16700
C683        C  0.30755923  0.99158723  0.73886763    -0.01500
C684        C  0.31327437  0.96772732  0.74419937     0.07100
C685        C  0.29774994  0.94597394  0.77616298    -0.07500
C686        C  0.27606422  0.94727911  0.80206315     0.04500
C687        C  0.26973134  0.97079666  0.79606727    -0.14700
C688        C  0.28585770  0.99290023  0.76460772    -0.08000
C689        C  0.33386539  0.96412413  0.71452946     0.05500
C690        C  0.36321385  0.97333959  0.72797129    -0.09100
C691        C  0.38381465  0.97253573  0.69899813     0.00500
C692        C  0.37501064  0.96257167  0.65598785     0.00300
C693        C  0.34524631  0.95186857  0.64338712    -0.12700
C694        C  0.32465838  0.95252691  0.67230282     0.00800
C695        C  0.41343581  0.98103633  0.71439614     0.40100
C696        C  0.29383828  0.43966116  0.66117804     0.36700
C697        C  0.32346527  0.51527254  0.70487500     0.36500
C698        C  0.25966863  0.92344950  0.83301750     0.37200
N699        N  0.43693151  0.98728232  0.72726535    -0.43600
N700        N  0.26909678  0.42958361  0.65070211    -0.44000
N701        N  0.24656854  0.90436365  0.85786208    -0.41400
N702        N  0.33595985  0.53308583  0.67812386    -0.42800
H703        H  0.28206032  0.51321985  0.75823335     0.13300
H704        H  0.30201945  0.92750515  0.78002544     0.09800
H705        H  0.37011215  0.98160420  0.76077863     0.10900
H706        H  0.33789099  0.44233864  0.61315161     0.16700
C707        C  0.16370940  0.00677759  0.75018123    -0.01500
C708        C  0.13329266  0.98427911  0.75237144     0.07100
C709        C  0.12474309  0.95977350  0.78040296    -0.07500
C710        C  0.14614909  0.95695242  0.80494584     0.04500
C711        C  0.17679513  0.97870415  0.80100234    -0.14700
C712        C  0.18517252  0.00368318  0.77401244    -0.08000
C713        C  0.11074209  0.98432349  0.72226697     0.05500
C714        C  0.11386488  0.98101438  0.67770397    -0.09100
C715        C  0.09284910  0.97967784  0.64769380     0.00500
C716        C  0.06802405  0.98218771  0.66208450     0.00300
C717        C  0.06485097  0.98522992  0.70698086    -0.12700
C718        C  0.08586728  0.98623654  0.73699811     0.00800
C719        C  0.09692091  0.97433073  0.60274586     0.40100
C720        C  0.08210855  0.49068698  0.78237118     0.36700
C721        C  0.17106934  0.53224502  0.72193405     0.36500
C722        C  0.13622315  0.93092982  0.83246398     0.37200
N723        N  0.10014198  0.96973240  0.56687784    -0.43600
N724        N  0.07956287  0.49496460  0.81865003    -0.44000
N725        N  0.12817667  0.91011974  0.85465671    -0.41400
N726        N  0.17774474  0.55296130  0.70006450    -0.42800
H727        H  0.20788366  0.52247795  0.77052652     0.13300
H728        H  0.10142532  0.94236101  0.78205471     0.09800
H729        H  0.13262606  0.97883847  0.66639327     0.10900
H730        H  0.04584230  0.48691745  0.71862997     0.16700
C731        C  0.36250996  0.99805526  0.41043775    -0.01500
C732        C  0.33407916  0.97270712  0.40327824     0.07100
C733        C  0.32646005  0.94595256  0.42526144    -0.07500
C734        C  0.34611228  0.94428336  0.45508528     0.04500
C735        C  0.37421519  0.96999735  0.46376969    -0.14700
C736        C  0.38207040  0.99662718  0.44077312    -0.08000
C737        C  0.31165256  0.97326032  0.37332624     0.05500
C738        C  0.30090552  0.95307798  0.33839556    -0.09100
C739        C  0.27811487  0.95107057  0.31128193     0.00500
C740        C  0.26589754  0.96993185  0.31846415     0.00300
C741        C  0.27683657  0.99023603  0.35335973    -0.12700
C742        C  0.29916903  0.99176219  0.38098793     0.00800
C743        C  0.26668897  0.92834622  0.27791860     0.40100
C744        C  0.30780621  0.01145607  0.41814166     0.36700
C745        C  0.37668087  0.52412142  0.37936408     0.36500
C746        C  0.33614715  0.91609325  0.47718513     0.37200
N747        N  0.25758247  0.91011721  0.25120481    -0.43600
N748        N  0.32445829  0.53715567  0.44154386    -0.40000
N749        N  0.32806995  0.89343174  0.49474407    -0.41400
N750        N  0.38611685  0.54477211  0.35656324    -0.42800
H751        H  0.40719211  0.51481613  0.44046607     0.13300
H752        H  0.30470561  0.92632900  0.41963347     0.09800
H753        H  0.30995775  0.93837783  0.33287945     0.10900
H754        H  0.26767960  0.00478958  0.35937362     0.16700
C755        C  0.07066254  0.96142506  0.37231522    -0.01500
C756        C  0.10169745  0.97585112  0.38025020     0.07100
C757        C  0.11353826  0.99427827  0.41670396    -0.07500
C758        C  0.09489576  0.99777005  0.44617423     0.04500
C759        C  0.06358157  0.98289937  0.43897926    -0.14700
C760        C  0.05186715  0.96523604  0.40145008    -0.08000
C761        C  0.12249979  0.97143570  0.35220822     0.05500
C762        C  0.13891855  0.99288638  0.32027090    -0.09100
C763        C  0.16170049  0.99171205  0.29708031     0.00500
C764        C  0.16835303  0.96870572  0.30592803     0.00300
C765        C  0.15136192  0.94687422  0.33730748    -0.12700
C766        C  0.12858927  0.94809170  0.36041191     0.00800
C767        C  0.17959299  0.51982687  0.26631552     0.40100
C768        C  0.11247922  0.92583261  0.39352747     0.36700
C769        C  0.05768012  0.94216021  0.33510482     0.36500
C770        C  0.10876143  0.01684661  0.48335101     0.37200
N771        N  0.19257788  0.53880046  0.24126500    -0.43600
N772        N  0.09961085  0.90802408  0.42012268    -0.44000
N773        N  0.11901085  0.52789328  0.51904636    -0.41400
N774        N  0.04730398  0.92670109  0.30526172    -0.42800
H775        H  0.02789426  0.95342083  0.39580200     0.13300
H776        H  0.13747706  0.00549499  0.42261081     0.09800
H777        H  0.13457172  0.01114432  0.31452294     0.10900
H778        H  0.15626290  0.92913105  0.34428106     0.16700
C779        C  0.20027716  0.94762682  0.10150621    -0.01500
C780        C  0.22563983  0.96992484  0.07944064     0.07100
C781        C  0.24960473  0.99208457  0.10335808    -0.07500
C782        C  0.24867385  0.99218028  0.14889653     0.04500
C783        C  0.22338170  0.96965933  0.17116140    -0.14700
C784        C  0.19936453  0.94758312  0.14700556    -0.08000
C785        C  0.22680324  0.97135767  0.03132186     0.05500
C786        C  0.22398964  0.99400378  0.01039126    -0.09100
C787        C  0.22334150  0.99533007  0.96495337     0.00500
C788        C  0.22544738  0.97356167  0.93967368     0.00300
C789        C  0.22905192  0.95134120  0.96081896    -0.12700
C790        C  0.22981776  0.95014442  0.00627924     0.00800
C791        C  0.22630196  0.52681498  0.94468176     0.40100
C792        C  0.23399285  0.92719288  0.02657707     0.36700
C793        C  0.17458964  0.92519299  0.07799187     0.36500
C794        C  0.27330251  0.01638230  0.17183551     0.37200
N795        N  0.22540929  0.54663495  0.92842966    -0.43600
N796        N  0.23739330  0.90884511  0.04288652    -0.44000
N797        N  0.29301114  0.03575054  0.19030071    -0.41400
N798        N  0.15406122  0.90732801  0.05893002    -0.42800
H799        H  0.17979306  0.93032811  0.16376181     0.13300
H800        H  0.26889339  0.00953245  0.08633321     0.09800
H801        H  0.22702741  0.51821694  0.02948938     0.10900
H802        H  0.23095788  0.93468489  0.94175787     0.16700
C803        C  0.35361690  0.81375330  0.77983960    -0.01500
C804        C  0.34782557  0.83114583  0.75024502     0.07100
C805        C  0.31853854  0.82586332  0.74560397    -0.07500
C806        C  0.29494550  0.80327311  0.76963567     0.04500
C807        C  0.30055132  0.78539949  0.79887540    -0.14700
C808        C  0.33007663  0.79122030  0.80410172    -0.08000
C809        C  0.37154884  0.85341638  0.72137139     0.05500
C810        C  0.37294932  0.84504477  0.67860511    -0.09100
C811        C  0.39438913  0.86524277  0.64948579     0.00500
C812        C  0.41484234  0.89495481  0.66296678     0.00300
C813        C  0.41378792  0.90300200  0.70636406    -0.12700
C814        C  0.39241610  0.88250130  0.73554742     0.00800
C815        C  0.39500525  0.85445548  0.60634657     0.40100
C816        C  0.39191644  0.89184455  0.77960922     0.36700
C817        C  0.38335576  0.81798567  0.78446957     0.36500
C818        C  0.26530888  0.79919069  0.76412302     0.37200
N819        N  0.39544619  0.84566096  0.57188742    -0.43600
N820        N  0.39155141  0.89929841  0.81498440    -0.44000
N821        N  0.24153977  0.79584176  0.75962079    -0.41400
N822        N  0.40724210  0.82145814  0.78783876    -0.42800
H823        H  0.33460490  0.77757284  0.82629685     0.13300
H824        H  0.31409238  0.83924207  0.72274906     0.09800
H825        H  0.35708433  0.82237882  0.66791964     0.10900
H826        H  0.42931571  0.92560593  0.71737765     0.16700
C827        C  0.16073824  0.68019965  0.74900389    -0.01500
C828        C  0.15365267  0.64995376  0.74729941     0.07100
C829        C  0.17004991  0.64070550  0.77314306    -0.07500
C830        C  0.19355009  0.66106697  0.79962399     0.04500
C831        C  0.20098069  0.69138008  0.80071743    -0.14700
C832        C  0.18418149  0.70053679  0.77563965    -0.08000
C833        C  0.13175670  0.62838439  0.71539546     0.05500
C834        C  0.14235933  0.61659884  0.68349909    -0.09100
C835        C  0.12320473  0.59665583  0.65202888     0.00500
C836        C  0.09242371  0.58803930  0.65181885     0.00300
C837        C  0.08191119  0.60017839  0.68360633    -0.12700
C838        C  0.10108196  0.61962635  0.71577982     0.00800
C839        C  0.13633864  0.58673164  0.61919656     0.40100
C840        C  0.08863786  0.62950380  0.74964584     0.36700
C841        C  0.14539717  0.69129422  0.72211181     0.36500
C842        C  0.21099387  0.65069299  0.82280704     0.37200
N843        N  0.14699208  0.57891937  0.59291217    -0.43600
N844        N  0.07876427  0.63743712  0.77692668    -0.44000
N845        N  0.22496009  0.64211070  0.84084122    -0.41400
N846        N  0.13300523  0.70018053  0.70075626    -0.42800
H847        H  0.18993776  0.72385900  0.77605403     0.13300
H848        H  0.16506249  0.61764150  0.77150619     0.09800
H849        H  0.16596126  0.62340902  0.68282520     0.10900
H850        H  0.05859233  0.59421849  0.68368517     0.16700
C851        C  0.33711977  0.84220370  0.31504570    -0.01500
C852        C  0.34264465  0.83800516  0.35889116     0.07100
C853        C  0.32187499  0.81146301  0.37997465    -0.07500
C854        C  0.29771817  0.78842265  0.35783252     0.04500
C855        C  0.29145498  0.79279127  0.31430780    -0.14700
C856        C  0.31132041  0.82023399  0.29392091    -0.08000
C857        C  0.36942186  0.86053955  0.38400732     0.05500
C858        C  0.37795365  0.89111052  0.38244876    -0.09100
C859        C  0.40156599  0.91225719  0.40800205     0.00500
C860        C  0.41486283  0.90257402  0.43936462     0.00300
C861        C  0.40666876  0.87228667  0.44090016    -0.12700
C862        C  0.38548091  0.85165963  0.41205588     0.00800
C863        C  0.41148540  0.94361078  0.40164496     0.40100
C864        C  0.38123765  0.82173685  0.41154666     0.36700
C865        C  0.35783530  0.86823009  0.29022270     0.36500
C866        C  0.28150024  0.76011314  0.38040012     0.37200
N867        N  0.41993230  0.96877282  0.39568965    -0.43600
N868        N  0.37794137  0.79781340  0.41122705    -0.44000
N869        N  0.26898910  0.73769583  0.39926814    -0.41400
N870        N  0.37429976  0.88910762  0.27023874    -0.42800
H871        H  0.30704017  0.82458132  0.26091625     0.13300
H872        H  0.32500545  0.80816916  0.41403108     0.09800
H873        H  0.36594151  0.89861851  0.36183966     0.10900
H874        H  0.41728550  0.86475782  0.46423748     0.16700
C875        C  0.17571258  0.66574014  0.37331788    -0.01500
C876        C  0.14514435  0.65376875  0.36326245     0.07100
C877        C  0.13713307  0.66619587  0.32857984    -0.07500
C878        C  0.15915542  0.68980428  0.30350771     0.04500
C879        C  0.18976831  0.70120996  0.31305652    -0.14700
C880        C  0.19754154  0.68879446  0.34792147    -0.08000
C881        C  0.12158812  0.62976626  0.39077636     0.05500
C882        C  0.10319070  0.63655164  0.41607249    -0.09100
C883        C  0.08428948  0.61661570  0.44801985     0.00500
C884        C  0.08381060  0.58913897  0.45547375     0.00300
C885        C  0.10082865  0.58164029  0.42784376    -0.12700
C886        C  0.11934504  0.60147206  0.39554530     0.00800
C887        C  0.06689823  0.62591307  0.47365692     0.40100
C888        C  0.13613221  0.59245051  0.36801255     0.36700
C889        C  0.18525816  0.65557493  0.41065633     0.36500
C890        C  0.14982367  0.70269657  0.26947307     0.37200
N891        N  0.05300815  0.63352640  0.49398656    -0.43600
N892        N  0.14953795  0.58513557  0.34600481    -0.44000
N893        N  0.14234527  0.71309792  0.24226530    -0.41400
N894        N  0.19285723  0.64746738  0.44065001    -0.42800
H895        H  0.22095714  0.69718849  0.35538784     0.13300
H896        H  0.11364200  0.65760446  0.32135669     0.09800
H897        H  0.10458748  0.65815839  0.41212659     0.10900
H898        H  0.10003157  0.56031756  0.43177381     0.16700
C899        C  0.26190904  0.76540278  0.00787993    -0.01500
C900        C  0.25401566  0.73971760  0.03347247     0.07100
C901        C  0.24740361  0.71288477  0.01266647    -0.07500
C902        C  0.24817055  0.71122969  0.96719331     0.04500
C903        C  0.25475921  0.73658276  0.94142886    -0.14700
C904        C  0.26191202  0.76356945  0.96243668    -0.08000
C905        C  0.25148245  0.74017923  0.08173998     0.05500
C906        C  0.23169333  0.74852815  0.09978056    -0.09100
C907        C  0.22872766  0.74961258  0.14489778     0.00500
C908        C  0.24540793  0.74180667  0.17290993     0.00300
C909        C  0.26510613  0.73332056  0.15510701    -0.12700
C910        C  0.26820256  0.73235944  0.10988902     0.00800
C911        C  0.20933764  0.75994561  0.16176089     0.40100
C912        C  0.28918479  0.72400421  0.09325204     0.36700
C913        C  0.27064089  0.79406396  0.02747530     0.36500
C914        C  0.24333999  0.68358748  0.94824156     0.37200
N915        N  0.19397724  0.76842925  0.17531556    -0.43600
N916        N  0.30592107  0.71719128  0.07993080    -0.44000
N917        N  0.23965624  0.66127923  0.93382941    -0.41400
N918        N  0.27770571  0.81704640  0.04316789    -0.42800
H919        H  0.26723242  0.78330350  0.94325528     0.13300
H920        H  0.24151397  0.69309028  0.03205635     0.09800
H921        H  0.21864275  0.75440390  0.07848722     0.10900
H922        H  0.27813987  0.72755006  0.17661084     0.16700
C923        C  0.71377784  0.22643476  0.28674420     0.03700
C924        C  0.73663401  0.25100557  0.30899213    -0.12500
C925        C  0.76432018  0.27018641  0.28896851     0.01200
C926        C  0.76716355  0.26647278  0.24407741    -0.11000
C927        C  0.74309994  0.24425935  0.22025278     0.03600
C928        C  0.71682707  0.22363681  0.24193867    -0.10400
H929        H  0.73280593  0.25434139  0.34258390     0.09200
H930        H  0.78796308  0.28080974  0.22720449     0.06800
H931        H  0.69926364  0.20504668  0.22409758     0.06600
C932        C  0.72480011  0.21369883  0.82556230     0.03700
C933        C  0.72693397  0.21338066  0.87104768    -0.12500
C934        C  0.75242051  0.23572076  0.89258001     0.01200
C935        C  0.77572678  0.25843805  0.86789347    -0.11000
C936        C  0.77364377  0.25918546  0.82239422     0.03600
C937        C  0.74820020  0.23652754  0.80148538    -0.10400
H938        H  0.70839123  0.19624712  0.88962832     0.09200
H939        H  0.79531704  0.27591397  0.88419953     0.06800
H940        H  0.74661834  0.23651988  0.76631719     0.06600
C941        C  0.74510734  0.47493541  0.29131335     0.03700
C942        C  0.72045202  0.47481070  0.31093559    -0.12500
C943        C  0.69778376  0.47478036  0.28554723     0.01200
C944        C  0.69989312  0.47475599  0.24006825    -0.11000
C945        C  0.72467209  0.47548366  0.21991775     0.03600
C946        C  0.74711474  0.47536762  0.24572768    -0.10400
H947        H  0.71889391  0.47473006  0.34611252     0.09200
H948        H  0.68230669  0.47438575  0.22027344     0.06800
H949        H  0.76618351  0.47571586  0.23033819     0.06600
C950        C  0.74779472  0.47639726  0.82211992     0.03700
C951        C  0.74910162  0.47749037  0.86769869    -0.12500
C952        C  0.72695721  0.47916129  0.89200501     0.01200
C953        C  0.70319863  0.47962539  0.87033256    -0.11000
C954        C  0.70191234  0.47914724  0.82474138     0.03600
C955        C  0.72440235  0.47777921  0.80080540    -0.10400
H956        H  0.76753786  0.47726749  0.88431901     0.09200
H957        H  0.68577326  0.48047057  0.88889338     0.06800
H958        H  0.72331861  0.47713141  0.76556957     0.06600
C959        C  0.98901837  0.23932882  0.28453470     0.03700
C960        C  0.99180713  0.24016791  0.23901628    -0.12500
C961        C  0.99027367  0.21580242  0.21644652     0.01200
C962        C  0.98613680  0.19049782  0.23951249    -0.11000
C963        C  0.98324477  0.18930564  0.28490674     0.03600
C964        C  0.98452828  0.21365736  0.30722697    -0.10400
H965        H  0.99427534  0.25937352  0.22097680     0.09200
H966        H  0.98496474  0.17166646  0.22211101     0.06800
H967        H  0.98253630  0.21280522  0.34237904     0.06600
C968        C  0.99331280  0.23975395  0.81696207     0.03700
C969        C  0.99251197  0.21495530  0.79673391    -0.12500
C970        C  0.99058730  0.19118986  0.82148741     0.01200
C971        C  0.98979985  0.19243569  0.86693361    -0.11000
C972        C  0.99068132  0.21705407  0.88789017     0.03600
C973        C  0.99248719  0.24072131  0.86264177    -0.10400
H974        H  0.99310776  0.21400812  0.76153467     0.09200
H975        H  0.98847996  0.17411321  0.88606387     0.06800
H976        H  0.99323442  0.25984150  0.87846471     0.06600
O977        O  0.91401850  0.99514012  0.51390802    -0.87700
C978        C  0.57085894  0.06787176  0.61739574     1.12400
O979        O  0.95434331  0.47387627  0.55706283    -1.35500
O980        O  0.54561071  0.07124207  0.50904866    -0.89100
O981        O  0.89344015  0.44628715  0.50880678    -0.89800
O982        O  0.95703875  0.44793056  0.46277500    -0.78600
O983        O  0.98017423  0.03344362  0.51912417    -1.00700
C984        C  0.54252194  0.48320718  0.47223742     1.22400
O985        O  0.98990678  0.44718731  0.55221861    -1.35600
Mn986      Mn  0.98725050  0.47524607  0.60225311     1.82100
O987        O  0.51838949  0.48184641  0.46172446    -0.77700
O988        O  0.57359487  0.04959323  0.50306464    -0.87100
C989        C  0.54440413  0.47973197  0.63152015     1.13500
C990        C  0.56632432  0.06873719  0.49080323     1.08200
O991        O  0.95752984  0.44128435  0.64535367    -0.78600
O992        O  0.51664603  0.00983139  0.55549894    -1.32300
O993        O  0.93139337  0.41460084  0.59299956    -0.97900
C994        C  0.99501931  0.39594524  0.48506715     1.07000
Mn995      Mn  0.56063268  0.01668352  0.55178103     1.48600
O996        O  0.96939548  0.38927723  0.49985080    -0.87000
Mn997      Mn  0.91369864  0.43194464  0.55475671     1.49600
O998        O  0.91615165  0.99200657  0.61077965    -0.90900
C999        C  0.98024947  0.03021347  0.47984411     1.20100
C1000       C  0.89668910  0.46608910  0.62347873     1.12200
Mn1001     Mn  0.98666981  0.47831209  0.50832494     1.81000
O1002       O  0.54900823  0.48168298  0.59239404    -0.96100
Mn1003     Mn  0.94778860  0.01110294  0.56096027     1.49300
C1004       C  0.89537466  0.47114101  0.49849929     1.08700
Mn1005     Mn  0.53200888  0.44876158  0.55010398     1.49900
C1006       C  0.99577073  0.39309431  0.61064979     1.11600
O1007       O  0.93066923  0.41653185  0.51141414    -1.01900
O1008       O  0.57718955  0.04929412  0.60029753    -0.91500
C1009       C  0.93505430  0.42321961  0.47296595     1.22900
O1010       O  0.54762076  0.48315719  0.51084546    -1.02300
O1011       O  0.54807599  0.06976977  0.60636492    -0.89700
O1012       O  0.52006568  0.41505949  0.59675098    -0.89300
O1013       O  0.89326194  0.44246248  0.60525787    -0.89300
Mn1014     Mn  0.51453617  0.05002794  0.55882893     1.47900
O1015       O  0.52002569  0.47682224  0.64443928    -0.77800
C1016       C  0.93520196  0.41761155  0.63212762     1.16000
O1017       O  0.98324799  0.00892865  0.46631596    -0.76500
O1018       O  0.98528756  0.00393578  0.64895331    -0.76100
Mn1019     Mn  0.95222189  0.40336829  0.55035856     1.51100
O1020       O  0.51935215  0.41721811  0.50008460    -0.88500
O1021       O  0.98173727  0.03134047  0.60080688    -0.96000
O1022       O  0.96995790  0.38678792  0.59707438    -0.91000
C1023       C  0.98299637  0.02630548  0.63924116     1.13800
C1024       C  0.51124636  0.14580904  0.74743028    -0.01500
C1025       C  0.98732123  0.11648912  0.75438569     0.07100
C1026       C  0.96473529  0.11157978  0.78413393    -0.07500
C1027       C  0.96550182  0.13555385  0.80661142     0.04500
C1028       C  0.98940955  0.16501001  0.79962906    -0.14700
C1029       C  0.51220439  0.16976600  0.77018017    -0.08000
C1030       C  0.98387020  0.09125161  0.72738590     0.05500
C1031       C  0.99842274  0.07548706  0.73937021    -0.09100
C1032       C  0.99732361  0.05303891  0.71233389     0.00500
C1033       C  0.98188999  0.04664957  0.67222280     0.00300
C1034       C  0.96638858  0.06177223  0.66143766    -0.12700
C1035       C  0.96713329  0.08375421  0.68868566     0.00800
C1036       C  0.01354049  0.03822698  0.72552163     0.40100
C1037       C  0.95114674  0.09889687  0.67580507     0.36700
C1038       C  0.53431751  0.15190369  0.71578207     0.36500
C1039       C  0.94062014  0.12957887  0.83458980     0.37200
N1040       N  0.02669654  0.02655864  0.73631878    -0.43600
N1041       N  0.93829280  0.11101290  0.66564807    -0.44000
N1042       N  0.92065473  0.12485019  0.85692261    -0.41400
N1043       N  0.55270039  0.15675499  0.69025273    -0.42800
H1044       H  0.53057260  0.19232261  0.76452298     0.13300
H1045       H  0.94598010  0.08909381  0.78865985     0.09800
H1046       H  0.01112821  0.08117424  0.76933856     0.10900
H1047       H  0.95396886  0.05671718  0.63124115     0.16700
C1048       C  0.00510996  0.33072131  0.65737347    -0.01500
C1049       C  0.99730825  0.33065015  0.70141658     0.07100
C1050       C  0.99121938  0.35281212  0.71622341    -0.07500
C1051       C  0.99156939  0.37409487  0.68734808     0.04500
C1052       C  0.99761727  0.37297550  0.64291832    -0.14700
C1053       C  0.00492947  0.35165215  0.62844155    -0.08000
C1054       C  0.99523629  0.30752324  0.73234972     0.05500
C1055       C  0.51624975  0.31590294  0.76606076    -0.09100
C1056       C  0.51577745  0.29440519  0.79464337     0.00500
C1057       C  0.99386019  0.26387164  0.78964488     0.00300
C1058       C  0.97235797  0.25575335  0.75657752    -0.12700
C1059       C  0.97278675  0.27722340  0.72820723     0.00800
C1060       C  0.53873608  0.30414610  0.82754848     0.40100
C1061       C  0.94972825  0.26769236  0.69545039     0.36700
C1062       C  0.01394486  0.30993635  0.64140628     0.36500
C1063       C  0.98676121  0.39746591  0.70418708     0.37200
N1064       N  0.55709205  0.31203600  0.85402053    -0.43600
N1065       N  0.93119875  0.26000018  0.66927816    -0.44000
N1066       N  0.98347098  0.41648738  0.71801349    -0.41400
N1067       N  0.02121204  0.29341011  0.62867946    -0.42800
H1068       H  0.01026852  0.35123001  0.59443233     0.13300
H1069       H  0.98600127  0.35332612  0.75024560     0.09800
H1070       H  0.53345048  0.33922173  0.76942746     0.10900
H1071       H  0.95512420  0.23246715  0.75290083     0.16700
C1072       C  0.47734361  0.06726916  0.37429549    -0.01500
C1073       C  0.97617550  0.09248330  0.38935597     0.07100
C1074       C  0.97461686  0.09632709  0.43415304    -0.07500
C1075       C  0.97525510  0.07617858  0.46412584     0.04500
C1076       C  0.97777603  0.05143217  0.44932962    -0.14700
C1077       C  0.47835648  0.04717502  0.40417127    -0.08000
C1078       C  0.97728699  0.11572241  0.35943027     0.05500
C1079       C  0.95278267  0.12051264  0.35790715    -0.09100
C1080       C  0.95394229  0.14387777  0.33296361     0.00500
C1081       C  0.98010715  0.16307050  0.30929786     0.00300
C1082       C  0.50435381  0.15790000  0.31005881    -0.12700
C1083       C  0.50323977  0.13460937  0.33507941     0.00800
C1084       C  0.92791351  0.14745562  0.33160830     0.40100
C1085       C  0.52948334  0.13141114  0.33685884     0.36700
C1086       C  0.47703901  0.06134230  0.32836300     0.36500
C1087       C  0.97364438  0.08201671  0.50971959     0.37200
N1088       N  0.90694787  0.15015146  0.33040915    -0.43600
N1089       N  0.55046827  0.12876462  0.33822055    -0.44000
N1090       N  0.97237019  0.08683165  0.54618693    -0.41400
N1091       N  0.47673447  0.05660216  0.29152467    -0.42800
H1092       H  0.47972213  0.02816559  0.39202243     0.13300
H1093       H  0.97342231  0.11555737  0.44580124     0.09800
H1094       H  0.93282447  0.10612757  0.37666115     0.10900
H1095       H  0.52455926  0.17269369  0.29205697     0.16700
C1096       C  0.97190435  0.34542406  0.38652604    -0.01500
C1097       C  0.99284440  0.33540857  0.38710313     0.07100
C1098       C  0.51626538  0.34762550  0.41747895    -0.07500
C1099       C  0.51813396  0.36826923  0.44864528     0.04500
C1100       C  0.99630061  0.37722428  0.44951611    -0.14700
C1101       C  0.97375853  0.36609772  0.41764044    -0.08000
C1102       C  0.99017689  0.31115591  0.35811427     0.05500
C1103       C  0.51333407  0.31742062  0.32861520    -0.09100
C1104       C  0.51330416  0.29457359  0.30392899     0.00500
C1105       C  0.98963304  0.26468269  0.30852235     0.00300
C1106       C  0.96626249  0.25856651  0.33768480    -0.12700
C1107       C  0.96641755  0.28139370  0.36251509     0.00800
C1108       C  0.53871334  0.30230271  0.27614482     0.40100
C1109       C  0.94268837  0.27346995  0.39376079     0.36700
C1110       C  0.94828823  0.33477020  0.35452764     0.36500
C1111       C  0.54141237  0.37813284  0.48111209     0.37200
N1112       N  0.55927865  0.30888108  0.25410122    -0.43600
N1113       N  0.92366300  0.26712349  0.41878116    -0.44000
N1114       N  0.56003936  0.38593359  0.50715285    -0.41400
N1115       N  0.92927343  0.32629093  0.32902517    -0.42800
H1116       H  0.95737306  0.37335077  0.41729086     0.13300
H1117       H  0.53246205  0.34004843  0.41794872     0.09800
H1118       H  0.53189501  0.34018723  0.32569194     0.10900
H1119       H  0.94798132  0.23575104  0.34149990     0.16700
C1120       C  0.96436030  0.19582196  0.10026527    -0.01500
C1121       C  0.99015251  0.21599938  0.07660697     0.07100
C1122       C  0.51624984  0.23589605  0.09929711    -0.07500
C1123       C  0.51695653  0.23590588  0.14483055     0.04500
C1124       C  0.99105901  0.21599354  0.16838853    -0.14700
C1125       C  0.96502952  0.19597828  0.14579553    -0.08000
C1126       C  0.99055852  0.21651233  0.02825937     0.05500
C1127       C  0.97102110  0.22334608  0.00572346    -0.09100
C1128       C  0.97068944  0.22386975  0.96012202     0.00500
C1129       C  0.99061946  0.21796540  0.93625705     0.00300
C1130       C  0.01033006  0.21143194  0.95901772    -0.12700
C1131       C  0.01029480  0.21043447  0.00447378     0.00800
C1132       C  0.94882366  0.22923259  0.93885232     0.40100
C1133       C  0.53001282  0.20210369  0.02589192     0.36700
C1134       C  0.93718100  0.17431310  0.07864473     0.36500
C1135       C  0.54480644  0.25565739  0.16648122     0.37200
N1136       N  0.93128916  0.23356617  0.92190334    -0.43600
N1137       N  0.54577831  0.19536374  0.04301052    -0.44000
N1138       N  0.56736879  0.27134986  0.18339544    -0.41400
N1139       N  0.91534151  0.15705522  0.06144498    -0.42800
H1140       H  0.94512594  0.18053748  0.16385471     0.13300
H1141       H  0.53618296  0.25134691  0.08130845     0.09800
H1142       H  0.95579388  0.22802486  0.02387413     0.10900
H1143       H  0.52571386  0.20683501  0.94114654     0.16700
C1144       C  0.80794834  0.49302435  0.73826625    -0.01500
C1145       C  0.81384651  0.46940163  0.74515128     0.07100
C1146       C  0.79869012  0.44852098  0.77830201    -0.07500
C1147       C  0.77728693  0.45051536  0.80397499     0.04500
C1148       C  0.77092900  0.47389541  0.79664944    -0.14700
C1149       C  0.78658442  0.49506439  0.76386714    -0.08000
C1150       C  0.83426899  0.46513774  0.71595604     0.05500
C1151       C  0.86390916  0.47527678  0.72884790    -0.09100
C1152       C  0.88435803  0.47406189  0.69999805     0.00500
C1153       C  0.87521675  0.46306900  0.65746841     0.00300
C1154       C  0.84512995  0.45124947  0.64562441    -0.12700
C1155       C  0.82462073  0.45205224  0.67459764     0.00800
C1156       C  0.91406534  0.48281495  0.71526683     0.40100
C1157       C  0.79429994  0.94163247  0.65784967     0.36700
C1158       C  0.82363986  0.01484192  0.70698440     0.36500
C1159       C  0.76112154  0.42746294  0.83608682     0.37200
N1160       N  0.93756746  0.48909406  0.72814674    -0.43600
N1161       N  0.76992870  0.93282825  0.64641145    -0.44000
N1162       N  0.74813896  0.40901289  0.86184433    -0.41400
N1163       N  0.83661053  0.03347632  0.68146702    -0.42800
H1164       H  0.78143248  0.01121659  0.76011554     0.13300
H1165       H  0.80302004  0.43018152  0.78330081     0.09800
H1166       H  0.87112090  0.48448361  0.76115873     0.10900
H1167       H  0.83836102  0.94397651  0.61039300     0.16700
C1168       C  0.66257258  0.50647427  0.74949030    -0.01500
C1169       C  0.63250445  0.48329193  0.75260544     0.07100
C1170       C  0.62493751  0.45952045  0.78168024    -0.07500
C1171       C  0.64706537  0.45811082  0.80643470     0.04500
C1172       C  0.67738857  0.48062190  0.80174487    -0.14700
C1173       C  0.68473977  0.50484614  0.77364957    -0.08000
C1174       C  0.60935103  0.48206873  0.72262289     0.05500
C1175       C  0.61157483  0.47699901  0.67840805    -0.09100
C1176       C  0.59056585  0.47564563  0.64837852     0.00500
C1177       C  0.56670095  0.47983822  0.66243630     0.00300
C1178       C  0.56418704  0.48420425  0.70708768    -0.12700
C1179       C  0.58525447  0.48538208  0.73710727     0.00800
C1180       C  0.59367113  0.46873956  0.60380549     0.40100
C1181       C  0.58170770  0.98966556  0.78261930     0.36700
C1182       C  0.67329687  0.03340186  0.72411318     0.36500
C1183       C  0.63825854  0.43270660  0.83487478     0.37200
N1184       N  0.59610238  0.46293062  0.56823292    -0.43600
N1185       N  0.57833752  0.99239036  0.81920109    -0.44000
N1186       N  0.63110534  0.41235827  0.85773791    -0.41400
N1187       N  0.68090976  0.05484747  0.70351482    -0.42800
H1188       H  0.70856275  0.02080723  0.77159208     0.13300
H1189       H  0.60186126  0.44160527  0.78400624     0.09800
H1190       H  0.62976572  0.47380053  0.66739077     0.10900
H1191       H  0.54587222  0.98679164  0.71878630     0.16700
C1192       C  0.86495905  0.49839202  0.40789140    -0.01500
C1193       C  0.83493963  0.47502303  0.40503019     0.07100
C1194       C  0.82508302  0.44984404  0.43205927    -0.07500
C1195       C  0.84436710  0.44787799  0.46229588     0.04500
C1196       C  0.87434598  0.47148262  0.46576867    -0.14700
C1197       C  0.88420570  0.49662311  0.43841533    -0.08000
C1198       C  0.81315778  0.47631502  0.37463712     0.05500
C1199       C  0.80001462  0.45442740  0.34213244    -0.09100
C1200       C  0.77805697  0.45368576  0.31441315     0.00500
C1201       C  0.76901726  0.47531482  0.31882557     0.00300
C1202       C  0.78225216  0.49723442  0.35133393    -0.12700
C1203       C  0.80394058  0.49775243  0.37933720     0.00800
C1204       C  0.76406867  0.42956842  0.28335690     0.40100
C1205       C  0.81536147  0.51963229  0.41385932     0.36700
C1206       C  0.87237713  0.02555004  0.38641681     0.36500
C1207       C  0.83222163  0.42220505  0.49097406     0.37200
N1208       N  0.75282130  0.41018231  0.25855954    -0.43600
N1209       N  0.81466912  0.02724081  0.44790869    -0.40000
N1210       N  0.82243246  0.40170529  0.51409803    -0.41400
N1211       N  0.88026681  0.04758839  0.36719907    -0.42800
H1212       H  0.90375312  0.01640436  0.44612872     0.13300
H1213       H  0.80196610  0.43190761  0.43014864     0.09800
H1214       H  0.80660200  0.43757752  0.33892137     0.10900
H1215       H  0.77532395  0.51378707  0.35520368     0.16700
C1216       C  0.57226180  0.46438391  0.37151068    -0.01500
C1217       C  0.60300754  0.47776923  0.38116276     0.07100
C1218       C  0.61407170  0.49430766  0.41941804    -0.07500
C1219       C  0.59496472  0.49710784  0.44877713     0.04500
C1220       C  0.56391105  0.48343522  0.43972194    -0.14700
C1221       C  0.55298665  0.46752403  0.40057691    -0.08000
C1222       C  0.62437415  0.47441311  0.35289261     0.05500
C1223       C  0.63978158  0.49590048  0.32051799    -0.09100
C1224       C  0.66335095  0.49611070  0.29749382     0.00500
C1225       C  0.67177446  0.47444054  0.30691187     0.00300
C1226       C  0.65573179  0.45251088  0.33863835    -0.12700
C1227       C  0.63223645  0.45237486  0.36160279     0.00800
C1228       C  0.67905155  0.01538588  0.26633786     0.40100
C1229       C  0.61703098  0.42992319  0.39481379     0.36700
C1230       C  0.55998682  0.44662086  0.33276984     0.36500
C1231       C  0.60813050  0.51420017  0.48785107     0.37200
N1232       N  0.69294471  0.03433691  0.24166724    -0.43600
N1233       N  0.60490789  0.41188702  0.42140521    -0.44000
N1234       N  0.62025305  0.03223372  0.51292671    -0.41400
N1235       N  0.55014133  0.43229113  0.30176648    -0.42800
H1236       H  0.52922026  0.45652299  0.39351229     0.13300
H1237       H  0.63778630  0.50466896  0.42670409     0.09800
H1238       H  0.63408495  0.51319197  0.31439395     0.10900
H1239       H  0.66186410  0.43567005  0.34589988     0.16700
C1240       C  0.70308455  0.45479549  0.10212649    -0.01500
C1241       C  0.72865303  0.47671649  0.07998279     0.07100
C1242       C  0.75292191  0.49853172  0.10385116    -0.07500
C1243       C  0.75213846  0.49854086  0.14941199     0.04500
C1244       C  0.72679585  0.47615965  0.17173830    -0.14700
C1245       C  0.70242041  0.45452764  0.14763088    -0.08000
C1246       C  0.72984484  0.47792025  0.03184252     0.05500
C1247       C  0.72813809  0.50108427  0.01049752    -0.09100
C1248       C  0.72737263  0.50207518  0.96501635     0.00500
C1249       C  0.72836041  0.47953416  0.94019587     0.00300
C1250       C  0.73093316  0.45683461  0.96170295    -0.12700
C1251       C  0.73169838  0.45588406  0.00716149     0.00800
C1252       C  0.72130372  0.01970269  0.94519728     0.40100
C1253       C  0.73453814  0.43222624  0.02781520     0.36700
C1254       C  0.67690360  0.43308021  0.07870132     0.36500
C1255       C  0.77688307  0.52262091  0.17234601     0.37200
N1256       N  0.71958532  0.03918760  0.92936648    -0.43600
N1257       N  0.73681167  0.41326975  0.04438164    -0.44000
N1258       N  0.79662330  0.54194996  0.19081916    -0.41400
N1259       N  0.65596134  0.41584510  0.05970071    -0.42800
H1260       H  0.68272173  0.43749603  0.16442935     0.13300
H1261       H  0.77232916  0.51577987  0.08678595     0.09800
H1262       H  0.72201401  0.01052520  0.02969112     0.10900
H1263       H  0.73194812  0.43957463  0.94291069     0.16700
C1264       C  0.85127455  0.31177239  0.77780326    -0.01500
C1265       C  0.84567361  0.32921990  0.74802375     0.07100
C1266       C  0.81634922  0.32375553  0.74278867    -0.07500
C1267       C  0.79263745  0.30124885  0.76676442     0.04500
C1268       C  0.79815001  0.28368284  0.79674593    -0.14700
C1269       C  0.82763456  0.28940718  0.80214097    -0.08000
C1270       C  0.86962608  0.35183571  0.71966332     0.05500
C1271       C  0.86961651  0.34493116  0.67572933    -0.09100
C1272       C  0.89116709  0.36548991  0.64707155     0.00500
C1273       C  0.91329020  0.39419055  0.66223850     0.00300
C1274       C  0.91340161  0.40085585  0.70663810    -0.12700
C1275       C  0.89191485  0.37991577  0.73533899     0.00800
C1276       C  0.88985975  0.35607695  0.60245955     0.40100
C1277       C  0.89272192  0.38787876  0.78049886     0.36700
C1278       C  0.88087738  0.31566462  0.78247828     0.36500
C1279       C  0.76300055  0.29700264  0.76042059     0.37200
N1280       N  0.88868574  0.34839122  0.56679307    -0.43600
N1281       N  0.89338849  0.39418431  0.81675815    -0.44000
N1282       N  0.73923349  0.29350012  0.75513870    -0.41400
N1283       N  0.90463436  0.31881052  0.78589775    -0.42800
H1284       H  0.83207333  0.27585544  0.82465842     0.13300
H1285       H  0.81198454  0.33703162  0.71962159     0.09800
H1286       H  0.85257427  0.32314789  0.66375943     0.10900
H1287       H  0.92997896  0.42267467  0.71890268     0.16700
C1288       C  0.65620180  0.17902157  0.75367513    -0.01500
C1289       C  0.65047499  0.14930148  0.74942630     0.07100
C1290       C  0.66791334  0.14034995  0.77334111    -0.07500
C1291       C  0.69144468  0.16065269  0.79975693     0.04500
C1292       C  0.69790597  0.19059701  0.80256894    -0.14700
C1293       C  0.67981243  0.19933872  0.78006370    -0.08000
C1294       C  0.62926158  0.12826669  0.71644320     0.05500
C1295       C  0.64085660  0.11812951  0.68356060    -0.09100
C1296       C  0.62234848  0.09837735  0.65143176     0.00500
C1297       C  0.59131504  0.08856437  0.65129974     0.00300
C1298       C  0.57979904  0.09910047  0.68396971    -0.12700
C1299       C  0.59828462  0.11813473  0.71699828     0.00800
C1300       C  0.63627309  0.08965509  0.61816627     0.40100
C1301       C  0.58480604  0.12595174  0.75197730     0.36700
C1302       C  0.63931422  0.18973738  0.72969775     0.36500
C1303       C  0.70984395  0.15070197  0.82120574     0.37200
N1304       N  0.64754808  0.08273348  0.59162690    -0.43600
N1305       N  0.57406561  0.13220728  0.78012812    -0.44000
N1306       N  0.72455391  0.14251436  0.83800746    -0.41400
N1307       N  0.62569124  0.19841306  0.71090071    -0.42800
H1308       H  0.68474955  0.22237457  0.78213980     0.13300
H1309       H  0.66379650  0.11764904  0.77005101     0.09800
H1310       H  0.66467056  0.12591594  0.68283480     0.10900
H1311       H  0.55623924  0.09207805  0.68416578     0.16700
C1312       C  0.83643325  0.34271624  0.31572786    -0.01500
C1313       C  0.84111331  0.33873230  0.36002611     0.07100
C1314       C  0.81958949  0.31267505  0.38122612    -0.07500
C1315       C  0.79559041  0.28968087  0.35880565     0.04500
C1316       C  0.79022496  0.29375598  0.31463088    -0.14700
C1317       C  0.81075979  0.32092037  0.29417787    -0.08000
C1318       C  0.86787704  0.36095679  0.38539404     0.05500
C1319       C  0.87724768  0.39170278  0.38295250    -0.09100
C1320       C  0.90107798  0.41271195  0.40830133     0.00500
C1321       C  0.91390416  0.40283079  0.44009938     0.00300
C1322       C  0.90471952  0.37232253  0.44272894    -0.12700
C1323       C  0.88316855  0.35168647  0.41432484     0.00800
C1324       C  0.91160986  0.44413646  0.40143562     0.40100
C1325       C  0.87771792  0.32131713  0.41530050     0.36700
C1326       C  0.85793144  0.36831423  0.29090509     0.36500
C1327       C  0.77871082  0.26173457  0.38204198     0.37200
N1328       N  0.92054272  0.46934451  0.39510632    -0.43600
N1329       N  0.87343233  0.29702941  0.41624992    -0.44000
N1330       N  0.76580685  0.23973710  0.40178450    -0.41400
N1331       N  0.87505742  0.38886588  0.27096255    -0.42800
H1332       H  0.80716166  0.32517838  0.26078491     0.13300
H1333       H  0.82207497  0.30965787  0.41562500     0.09800
H1334       H  0.86571976  0.39945937  0.36177418     0.10900
H1335       H  0.91482601  0.36459930  0.46665187     0.16700
C1336       C  0.67526891  0.16799086  0.37430898    -0.01500
C1337       C  0.64480020  0.15457792  0.36278465     0.07100
C1338       C  0.63664698  0.16560021  0.32651346    -0.07500
C1339       C  0.65849644  0.18923875  0.30130617     0.04500
C1340       C  0.68909285  0.20189050  0.31210711    -0.14700
C1341       C  0.69695614  0.19077593  0.34848495    -0.08000
C1342       C  0.62140295  0.13027298  0.39000764     0.05500
C1343       C  0.60119867  0.13583710  0.41281658    -0.09100
C1344       C  0.58206463  0.11569799  0.44437931     0.00500
C1345       C  0.58322901  0.08929419  0.45401455     0.00300
C1346       C  0.60209805  0.08292215  0.42867304    -0.12700
C1347       C  0.62090369  0.10295149  0.39685591     0.00800
C1348       C  0.56261387  0.12371853  0.46720994     0.40100
C1349       C  0.63997158  0.09525504  0.37226470     0.36700
C1350       C  0.68479323  0.15966836  0.41357225     0.36500
C1351       C  0.64892125  0.20086304  0.26584679     0.37200
N1352       N  0.54713593  0.13040461  0.48525696    -0.43600
N1353       N  0.65530646  0.08907307  0.35275182    -0.44000
N1354       N  0.64120762  0.21023849  0.23752024    -0.41400
N1355       N  0.69236331  0.15308994  0.44514749    -0.42800
H1356       H  0.72034186  0.20001614  0.35686675     0.13300
H1357       H  0.61317768  0.15589350  0.31814503     0.09800
H1358       H  0.60128558  0.15669478  0.40723164     0.10900
H1359       H  0.60266701  0.06240989  0.43417078     0.16700
C1360       C  0.76080499  0.26581738  0.00720766    -0.01500
C1361       C  0.75346467  0.24032838  0.03294539     0.07100
C1362       C  0.74720497  0.21353608  0.01233308    -0.07500
C1363       C  0.74765055  0.21170683  0.96685370     0.04500
C1364       C  0.75374215  0.23687251  0.94099381    -0.14700
C1365       C  0.76068401  0.26385279  0.96177776    -0.08000
C1366       C  0.75113299  0.24094635  0.08119850     0.05500
C1367       C  0.73062150  0.24827528  0.09932676    -0.09100
C1368       C  0.72780419  0.24945953  0.14445479     0.00500
C1369       C  0.74538365  0.24277599  0.17240897     0.00300
C1370       C  0.76590293  0.23542145  0.15447526    -0.12700
C1371       C  0.76884229  0.23437606  0.10922149     0.00800
C1372       C  0.70763984  0.25881184  0.16136400     0.40100
C1373       C  0.79066920  0.22726143  0.09233564     0.36700
C1374       C  0.76897417  0.29437837  0.02666579     0.36500
C1375       C  0.74282995  0.18406883  0.94784265     0.37200
N1376       N  0.69167288  0.26653432  0.17495410    -0.43600
N1377       N  0.80810448  0.22149296  0.07873369    -0.44000
N1378       N  0.73912179  0.16182560  0.93312455    -0.41400
N1379       N  0.77556902  0.31727267  0.04227362    -0.42800
H1380       H  0.76561142  0.28341354  0.94242989     0.13300
H1381       H  0.74176518  0.19391279  0.03186944     0.09800
H1382       H  0.71690137  0.25329559  0.07808278     0.10900
H1383       H  0.77964555  0.23054243  0.17588564     0.16700
C1384       C  0.71451362  0.72568514  0.28769046     0.03700
C1385       C  0.73780465  0.74994739  0.30987137    -0.12500
C1386       C  0.76524138  0.76921264  0.28921409     0.01200
C1387       C  0.76759531  0.76559404  0.24420451    -0.11000
C1388       C  0.74327912  0.74347221  0.22071312     0.03600
C1389       C  0.71706806  0.72303756  0.24270494    -0.10400
H1390       H  0.73449992  0.75305171  0.34379793     0.09200
H1391       H  0.78827036  0.77992028  0.22702096     0.06800
H1392       H  0.69918522  0.70463739  0.22499567     0.06600
C1393       C  0.72748883  0.71434325  0.82482561     0.03700
C1394       C  0.72902602  0.71349150  0.87041980    -0.12500
C1395       C  0.75407316  0.73578900  0.89291437     0.01200
C1396       C  0.77756859  0.75894640  0.86905606    -0.11000
C1397       C  0.77601704  0.76031644  0.82359432     0.03600
C1398       C  0.75103553  0.73775988  0.80173171    -0.10400
H1399       H  0.71031229  0.69603540  0.88832784     0.09200
H1400       H  0.79686666  0.77635510  0.88598944     0.06800
H1401       H  0.74993553  0.73832958  0.76655059     0.06600
C1402       C  0.74149087  0.96865983  0.29088651     0.03700
C1403       C  0.71642029  0.96788884  0.31031387    -0.12500
C1404       C  0.69386275  0.96795291  0.28475518     0.01200
C1405       C  0.69609140  0.96797578  0.23928517    -0.11000
C1406       C  0.72107892  0.96904116  0.21932216     0.03600
C1407       C  0.74369950  0.96946628  0.24528930    -0.10400
H1408       H  0.71461330  0.96763767  0.34546421     0.09200
H1409       H  0.67857164  0.96766663  0.21938315     0.06800
H1410       H  0.76313847  0.97063299  0.22990079     0.06600
C1411       C  0.74617240  0.97254695  0.82152884     0.03700
C1412       C  0.74677753  0.97242422  0.86714236    -0.12500
C1413       C  0.72440137  0.97371728  0.89140860     0.01200
C1414       C  0.70105767  0.97489476  0.86956638    -0.11000
C1415       C  0.70056376  0.97582228  0.82398258     0.03600
C1416       C  0.72328709  0.97482043  0.80014944    -0.10400
H1417       H  0.76497484  0.97176483  0.88381364     0.09200
H1418       H  0.68343783  0.97544030  0.88800946     0.06800
H1419       H  0.72284303  0.97527435  0.76489862     0.06600
C1420       C  0.99322585  0.74067789  0.28603692     0.03700
C1421       C  0.99617249  0.74190255  0.24053907    -0.12500
C1422       C  0.99468746  0.71769884  0.21754737     0.01200
C1423       C  0.99043786  0.69220324  0.24020030    -0.11000
C1424       C  0.98735563  0.69064619  0.28558114     0.03600
C1425       C  0.98871320  0.71489301  0.30829703    -0.10400
H1426       H  0.99871906  0.76127290  0.22287576     0.09200
H1427       H  0.98913584  0.67343316  0.22245398     0.06800
H1428       H  0.98658702  0.71381183  0.34343685     0.06600
C1429       C  0.99527478  0.74067539  0.81797555     0.03700
C1430       C  0.99380891  0.71554823  0.79773085    -0.12500
C1431       C  0.99193331  0.69176093  0.82248459     0.01200
C1432       C  0.99173647  0.69330294  0.86798174    -0.11000
C1433       C  0.99324010  0.71822142  0.88894889     0.03600
C1434       C  0.99511592  0.74191377  0.86366862    -0.10400
H1435       H  0.99392247  0.71440278  0.76252349     0.09200
H1436       H  0.99048718  0.67502785  0.88715527     0.06800
H1437       H  0.99637366  0.76126310  0.87950127     0.06600
O1438       O  0.91439178  0.49598980  0.51529585    -0.87700
C1439       C  0.57137446  0.56717392  0.61843867     1.12400
O1440       O  0.95450070  0.97379119  0.55636466    -1.35500
O1441       O  0.54602383  0.57092194  0.51011379    -0.89100
O1442       O  0.89386149  0.94557244  0.50779140    -0.89800
O1443       O  0.95751003  0.94785578  0.46240229    -0.78600
O1444       O  0.98056508  0.53369431  0.52022879    -1.00700
C1445       C  0.54275000  0.98326838  0.47186100     1.22400
O1446       O  0.99054506  0.94765027  0.55200264    -1.35600
Mn1447     Mn  0.98766080  0.97576606  0.60163957     1.82100
O1448       O  0.51863722  0.98199687  0.46151431    -0.77700
O1449       O  0.57399771  0.54923090  0.50433586    -0.87100
C1450       C  0.54528921  0.98139724  0.63126451     1.13500
C1451       C  0.56682778  0.56846427  0.49209470     1.08200
O1452       O  0.95834949  0.94194285  0.64474312    -0.78600
O1453       O  0.51655490  0.50939693  0.55632498    -1.32300
O1454       O  0.93190400  0.91445883  0.59295500    -0.97900
C1455       C  0.99644342  0.89612100  0.48644193     1.07000
Mn1456     Mn  0.56039640  0.51585752  0.55264867     1.48600
O1457       O  0.97063264  0.88960355  0.50018717    -0.87000
Mn1458     Mn  0.91414214  0.93158160  0.55419431     1.49600
O1459       O  0.91649937  0.49240560  0.61218011    -0.90900
C1460       C  0.98058988  0.53036676  0.48092043     1.20100
C1461       C  0.89659814  0.96566185  0.62226574     1.12200
Mn1462     Mn  0.98692487  0.97847896  0.50776621     1.81000
O1463       O  0.54962083  0.98299142  0.59211668    -0.96100
Mn1464     Mn  0.94816778  0.51148210  0.56220817     1.49300
C1465       C  0.89534482  0.97015094  0.49705463     1.08700
Mn1466     Mn  0.53285456  0.94960934  0.55073966     1.49900
C1467       C  0.99672412  0.89410343  0.61183911     1.11600
O1468       O  0.93130345  0.91624032  0.51098273    -1.01900
O1469       O  0.57714693  0.54813300  0.60158674    -0.91500
C1470       C  0.93574744  0.92298237  0.47250630     1.22900
O1471       O  0.54827354  0.98362940  0.51044167    -1.02300
O1472       O  0.54880448  0.56947871  0.60737088    -0.89700
O1473       O  0.52099912  0.91645128  0.59854400    -0.89300
O1474       O  0.89347812  0.94205389  0.60439502    -0.89300
Mn1475     Mn  0.51498860  0.54989391  0.55993263     1.47900
O1476       O  0.52073690  0.97806716  0.64417963    -0.77800
C1477       C  0.93613099  0.91801843  0.63203419     1.16000
O1478       O  0.98330449  0.50894103  0.46736805    -0.76500
O1479       O  0.98535071  0.50356606  0.64988965    -0.76100
Mn1480     Mn  0.95309730  0.90356284  0.55034888     1.51100
O1481       O  0.52059724  0.91743879  0.50179533    -0.88500
O1482       O  0.98222358  0.53138320  0.60198441    -0.96000
O1483       O  0.97099081  0.88729627  0.59730162    -0.91000
C1484       C  0.98347680  0.52621228  0.64035821     1.13800
C1485       C  0.51200203  0.64622607  0.74757093    -0.01500
C1486       C  0.98864081  0.61679052  0.75567536     0.07100
C1487       C  0.96654010  0.61185774  0.78635535    -0.07500
C1488       C  0.96723255  0.63588635  0.80863774     0.04500
C1489       C  0.99063129  0.66546766  0.80059092    -0.14700
C1490       C  0.51293446  0.67023395  0.77017541    -0.08000
C1491       C  0.98508224  0.59141927  0.72879266     0.05500
C1492       C  0.00067597  0.57647781  0.73965278    -0.09100
C1493       C  0.99936262  0.55393042  0.71257588     0.00500
C1494       C  0.98274220  0.54667886  0.67347491     0.00300
C1495       C  0.96637164  0.56106895  0.66373238    -0.12700
C1496       C  0.96722234  0.58304423  0.69113665     0.00800
C1497       C  0.01657306  0.53992983  0.72452625     0.40100
C1498       C  0.95017168  0.59730094  0.67945046     0.36700
C1499       C  0.53448231  0.65238022  0.71487117     0.36500
C1500       C  0.94269489  0.62975317  0.83744971     0.37200
N1501       N  0.03057325  0.52895982  0.73431643    -0.43600
N1502       N  0.93646500  0.60871303  0.67029518    -0.44000
N1503       N  0.92294446  0.62480544  0.86038970    -0.41400
N1504       N  0.55240454  0.65730860  0.68851769    -0.42800
H1505       H  0.53092098  0.69284625  0.76366335     0.13300
H1506       H  0.94815625  0.58927641  0.79174132     0.09800
H1507       H  0.01432572  0.58287306  0.76874914     0.10900
H1508       H  0.95315991  0.55542586  0.63423091     0.16700
C1509       C  0.00426012  0.83056294  0.65830754    -0.01500
C1510       C  0.99808042  0.83148994  0.70287041     0.07100
C1511       C  0.99337467  0.85454391  0.71792262    -0.07500
C1512       C  0.99361984  0.87578070  0.68894251     0.04500
C1513       C  0.99848578  0.87393237  0.64422099    -0.14700
C1514       C  0.00418788  0.85156935  0.62940508    -0.08000
C1515       C  0.99623667  0.80845012  0.73398776     0.05500
C1516       C  0.51781431  0.81682691  0.76693196    -0.09100
C1517       C  0.51771326  0.79535408  0.79526593     0.00500
C1518       C  0.99564486  0.76480879  0.79076650     0.00300
C1519       C  0.97358196  0.75670859  0.75857033    -0.12700
C1520       C  0.97357870  0.77815590  0.73056245     0.00800
C1521       C  0.54116186  0.80513549  0.82741015     0.40100
C1522       C  0.94982525  0.76858800  0.69894200     0.36700
C1523       C  0.01118989  0.80855357  0.64159828     0.36500
C1524       C  0.98931699  0.89948266  0.70578012     0.37200
N1525       N  0.55990148  0.81306535  0.85328949    -0.43600
N1526       N  0.93074490  0.76086224  0.67366658    -0.44000
N1527       N  0.98619483  0.91864444  0.71947210    -0.41400
N1528       N  0.01681378  0.79097548  0.62817426    -0.42800
H1529       H  0.00835152  0.85038928  0.59509815     0.13300
H1530       H  0.98915442  0.85570457  0.75219966     0.09800
H1531       H  0.53517950  0.84011730  0.76985342     0.10900
H1532       H  0.95618472  0.73344996  0.75535602     0.16700
C1533       C  0.47681384  0.56625555  0.37485630    -0.01500
C1534       C  0.97730029  0.59240885  0.38941040     0.07100
C1535       C  0.97707393  0.59729994  0.43416837    -0.07500
C1536       C  0.97743466  0.57724016  0.46454288     0.04500
C1537       C  0.97841039  0.55158806  0.45017898    -0.14700
C1538       C  0.47767904  0.54631842  0.40512381    -0.08000
C1539       C  0.97881278  0.61559343  0.35905396     0.05500
C1540       C  0.95557861  0.62231071  0.35956637    -0.09100
C1541       C  0.95761727  0.64623290  0.33513242     0.00500
C1542       C  0.98327780  0.66386984  0.30950825     0.00300
C1543       C  0.50612860  0.65662581  0.30799149    -0.12700
C1544       C  0.50425754  0.63291981  0.33283866     0.00800
C1545       C  0.93308152  0.65218554  0.33671069     0.40100
C1546       C  0.52941351  0.62788374  0.33283886     0.36700
C1547       C  0.47492676  0.55917418  0.32913054     0.36500
C1548       C  0.97709984  0.58404100  0.51005207     0.37200
N1549       N  0.91342257  0.65696494  0.33797774    -0.43600
N1550       N  0.54950337  0.62374683  0.33293034    -0.44000
N1551       N  0.97678388  0.58955044  0.54647091    -0.41400
N1552       N  0.47336026  0.55345097  0.29248973    -0.42800
H1553       H  0.47784037  0.52659313  0.39334646     0.13300
H1554       H  0.97711598  0.61724828  0.44543982     0.09800
H1555       H  0.93603485  0.60912773  0.37978491     0.10900
H1556       H  0.52599019  0.67025316  0.28858423     0.16700
C1557       C  0.97583003  0.84643491  0.38729254    -0.01500
C1558       C  0.99613852  0.83569100  0.38999187     0.07100
C1559       C  0.51815949  0.84679658  0.42249357    -0.07500
C1560       C  0.51928805  0.86722351  0.45345581     0.04500
C1561       C  0.99823956  0.87717950  0.45178845    -0.14700
C1562       C  0.97700559  0.86697073  0.41810671    -0.08000
C1563       C  0.99402192  0.81170348  0.36099789     0.05500
C1564       C  0.51777492  0.81811562  0.33259654    -0.09100
C1565       C  0.51782379  0.79549670  0.30742550     0.00500
C1566       C  0.99370727  0.76575364  0.31051469     0.00300
C1567       C  0.96982943  0.75946603  0.33874395    -0.12700
C1568       C  0.96985905  0.78206028  0.36399295     0.00800
C1569       C  0.54365721  0.80317737  0.28062360     0.40100
C1570       C  0.94551633  0.77404612  0.39415050     0.36700
C1571       C  0.95351471  0.83661230  0.35340903     0.36500
C1572       C  0.54082999  0.87578653  0.48831108     0.37200
N1573       N  0.56451964  0.80958125  0.25934524    -0.43600
N1574       N  0.92603910  0.76767705  0.41834798    -0.44000
N1575       N  0.55804290  0.88250383  0.51627080    -0.41400
N1576       N  0.93554258  0.82876085  0.32637154    -0.42800
H1577       H  0.96114623  0.87485220  0.41608078     0.13300
H1578       H  0.53375717  0.83852458  0.42471001     0.09800
H1579       H  0.53662183  0.84077776  0.33079461     0.10900
H1580       H  0.95125135  0.73671626  0.34145563     0.16700
C1581       C  0.96876717  0.69802099  0.10132873    -0.01500
C1582       C  0.99445272  0.71843608  0.07770908     0.07100
C1583       C  0.52051864  0.73840455  0.10040314    -0.07500
C1584       C  0.52125161  0.73828121  0.14595503     0.04500
C1585       C  0.99542999  0.71814857  0.16947775    -0.14700
C1586       C  0.96945669  0.69804778  0.14684580    -0.08000
C1587       C  0.99471696  0.71897088  0.02937130     0.05500
C1588       C  0.97525746  0.72602852  0.00711413    -0.09100
C1589       C  0.97440215  0.72609655  0.96152899     0.00500
C1590       C  0.99370571  0.71946018  0.93734747     0.00300
C1591       C  0.01336348  0.71270563  0.95984761    -0.12700
C1592       C  0.01388639  0.71224093  0.00534055     0.00800
C1593       C  0.95258556  0.73171122  0.94064998     0.40100
C1594       C  0.53355463  0.70378475  0.02662225     0.36700
C1595       C  0.94171100  0.67634640  0.07961826     0.36500
C1596       C  0.54905879  0.75807149  0.16767790     0.37200
N1597       N  0.93509310  0.73625601  0.92402948    -0.43600
N1598       N  0.54926252  0.69696157  0.04372287    -0.44000
N1599       N  0.57156521  0.77377420  0.18472062    -0.41400
N1600       N  0.92000982  0.65895107  0.06226958    -0.42800
H1601       H  0.94962452  0.68240659  0.16486361     0.13300
H1602       H  0.54039483  0.75397675  0.08241162     0.09800
H1603       H  0.96042276  0.73114221  0.02549344     0.10900
H1604       H  0.52828838  0.70756805  0.94176758     0.16700
C1605       C  0.80755988  0.99158682  0.73886903    -0.01500
C1606       C  0.81327444  0.96772646  0.74419964     0.07100
C1607       C  0.79774952  0.94597255  0.77616242    -0.07500
C1608       C  0.77606383  0.94727764  0.80206272     0.04500
C1609       C  0.76973128  0.97079545  0.79606757    -0.14700
C1610       C  0.78585821  0.99289967  0.76460902    -0.08000
C1611       C  0.83386526  0.96412329  0.71452930     0.05500
C1612       C  0.86321362  0.97333820  0.72797086    -0.09100
C1613       C  0.88381420  0.97253429  0.69899738     0.00500
C1614       C  0.87501009  0.96257081  0.65598690     0.00300
C1615       C  0.84524582  0.95186817  0.64338644    -0.12700
C1616       C  0.82465804  0.95252643  0.67230250     0.00800
C1617       C  0.91343520  0.98103411  0.71439526     0.40100
C1618       C  0.79383827  0.43966068  0.66117770     0.36700
C1619       C  0.82346310  0.51527055  0.70487571     0.36500
C1620       C  0.75966802  0.92344773  0.83301664     0.37200
N1621       N  0.93693075  0.98727945  0.72726433    -0.43600
N1622       N  0.76909685  0.42958312  0.65070145    -0.44000
N1623       N  0.74656787  0.90436176  0.85786091    -0.41400
N1624       N  0.83595732  0.53308408  0.67812466    -0.42800
H1625       H  0.78205762  0.51321657  0.75823401     0.13300
H1626       H  0.80201869  0.92750346  0.78002413     0.09800
H1627       H  0.87011206  0.98160245  0.76077859     0.10900
H1628       H  0.83789151  0.44233913  0.61315165     0.16700
C1629       C  0.66371039  0.00677741  0.75018035    -0.01500
C1630       C  0.63329345  0.98427953  0.75237137     0.07100
C1631       C  0.62474352  0.95977419  0.78040352    -0.07500
C1632       C  0.64614934  0.95695272  0.80494628     0.04500
C1633       C  0.67679553  0.97870383  0.80100212    -0.14700
C1634       C  0.68517331  0.00368266  0.77401160    -0.08000
C1635       C  0.61074296  0.98432415  0.72226699     0.05500
C1636       C  0.61386524  0.98101416  0.67770407    -0.09100
C1637       C  0.59284941  0.97967781  0.64769407     0.00500
C1638       C  0.56802489  0.98218855  0.66208484     0.00300
C1639       C  0.56485240  0.98523166  0.70698109    -0.12700
C1640       C  0.58586881  0.98623834  0.73699820     0.00800
C1641       C  0.59692072  0.97433006  0.60274624     0.40100
C1642       C  0.58210844  0.49068620  0.78237029     0.36700
C1643       C  0.67106848  0.53224241  0.72193393     0.36500
C1644       C  0.63622301  0.93093029  0.83246493     0.37200
N1645       N  0.60014149  0.96973126  0.56687830    -0.43600
N1646       N  0.57956320  0.49496410  0.81864917    -0.44000
N1647       N  0.62817629  0.91012036  0.85465804    -0.41400
N1648       N  0.67774414  0.55295899  0.70006495    -0.42800
H1649       H  0.70788230  0.52247421  0.77052589     0.13300
H1650       H  0.60142555  0.94236211  0.78205584     0.09800
H1651       H  0.63262567  0.97883752  0.66639350     0.10900
H1652       H  0.54584239  0.48691765  0.71862925     0.16700
C1653       C  0.86251206  0.99805671  0.41043496    -0.01500
C1654       C  0.83408099  0.97270897  0.40327551     0.07100
C1655       C  0.82646106  0.94595436  0.42525913    -0.07500
C1656       C  0.84611279  0.94428481  0.45508353     0.04500
C1657       C  0.87421597  0.96999842  0.46376791    -0.14700
C1658       C  0.88207194  0.99662820  0.44077082    -0.08000
C1659       C  0.81165470  0.97326281  0.37332366     0.05500
C1660       C  0.80090762  0.95308064  0.33839259    -0.09100
C1661       C  0.77811684  0.95107370  0.31127950     0.00500
C1662       C  0.76589956  0.96993491  0.31846267     0.00300
C1663       C  0.77683880  0.99023892  0.35335851    -0.12700
C1664       C  0.79917143  0.99176476  0.38098607     0.00800
C1665       C  0.76669091  0.92834968  0.27791556     0.40100
C1666       C  0.80780901  0.01145853  0.41814008     0.36700
C1667       C  0.87668139  0.52412014  0.37936173     0.36500
C1668       C  0.83614670  0.91609483  0.47718432     0.37200
N1669       N  0.75758443  0.91012103  0.25120133    -0.43600
N1670       N  0.82445994  0.53715673  0.44154080    -0.40000
N1671       N  0.82806871  0.89343346  0.49474406    -0.41400
N1672       N  0.88611743  0.54477036  0.35655997    -0.42800
H1673       H  0.90719315  0.51481588  0.44046448     0.13300
H1674       H  0.80470650  0.92633130  0.41963128     0.09800
H1675       H  0.80995934  0.93838115  0.33287617     0.10900
H1676       H  0.76768207  0.00479226  0.35937295     0.16700
C1677       C  0.57066309  0.96142571  0.37231528    -0.01500
C1678       C  0.60169812  0.97585271  0.38024974     0.07100
C1679       C  0.61353868  0.99427976  0.41670359    -0.07500
C1680       C  0.59489593  0.99777062  0.44617447     0.04500
C1681       C  0.56358170  0.98289939  0.43897967    -0.14700
C1682       C  0.55186748  0.96523610  0.40145046    -0.08000
C1683       C  0.62250077  0.97143775  0.35220777     0.05500
C1684       C  0.63891890  0.99288826  0.32026990    -0.09100
C1685       C  0.66170131  0.99171452  0.29707962     0.00500
C1686       C  0.66835492  0.96870903  0.30592819     0.00300
C1687       C  0.65136442  0.94687767  0.33730822    -0.12700
C1688       C  0.62859135  0.94809461  0.36041237     0.00800
C1689       C  0.67959022  0.51982355  0.26630802     0.40100
C1690       C  0.61248203  0.92583588  0.39352861     0.36700
C1691       C  0.55768080  0.94216023  0.33510550     0.36500
C1692       C  0.60876135  0.01684648  0.48335196     0.37200
N1693       N  0.69257337  0.53879510  0.24125394    -0.43600
N1694       N  0.59961413  0.90802770  0.42012453    -0.44000
N1695       N  0.61901024  0.52789230  0.51905035    -0.41400
N1696       N  0.54730468  0.92670049  0.30526294    -0.42800
H1697       H  0.52789444  0.95342026  0.39580266     0.13300
H1698       H  0.63747761  0.00549698  0.42261028     0.09800
H1699       H  0.63457129  0.01114550  0.31452135     0.10900
H1700       H  0.65626606  0.92913528  0.34428228     0.16700
C1701       C  0.70027698  0.94762969  0.10150657    -0.01500
C1702       C  0.72564019  0.96992625  0.07944023     0.07100
C1703       C  0.74960601  0.99208547  0.10335682    -0.07500
C1704       C  0.74867561  0.99218210  0.14889521     0.04500
C1705       C  0.72338293  0.96966248  0.17116092    -0.14700
C1706       C  0.69936492  0.94758690  0.14700576    -0.08000
C1707       C  0.72680327  0.97135814  0.03132150     0.05500
C1708       C  0.72399127  0.99400494  0.01039008    -0.09100
C1709       C  0.72334297  0.99533053  0.96495217     0.00500
C1710       C  0.72544715  0.97356082  0.93967341     0.00300
C1711       C  0.72905007  0.95133963  0.96081947    -0.12700
C1712       C  0.72981595  0.95014344  0.00627977     0.00800
C1713       C  0.72629683  0.52680893  0.94468271     0.40100
C1714       C  0.73398912  0.92719096  0.02657857     0.36700
C1715       C  0.67458850  0.92519658  0.07799304     0.36500
C1716       C  0.77330543  0.01638360  0.17183318     0.37200
N1717       N  0.72540391  0.54662892  0.92843122    -0.43600
N1718       N  0.73738797  0.90884241  0.04288882    -0.44000
N1719       N  0.79301505  0.03575141  0.19029746    -0.41400
N1720       N  0.65405932  0.90733217  0.05893189    -0.42800
H1721       H  0.67979259  0.93033243  0.16376303     0.13300
H1722       H  0.76889518  0.00953235  0.08633119     0.09800
H1723       H  0.72702174  0.51820984  0.02948988     0.10900
H1724       H  0.73095475  0.93468229  0.94175888     0.16700
C1725       C  0.85361557  0.81375326  0.77983840    -0.01500
C1726       C  0.84782492  0.83114610  0.75024349     0.07100
C1727       C  0.81853830  0.82586479  0.74560274    -0.07500
C1728       C  0.79494496  0.80327540  0.76963488     0.04500
C1729       C  0.80055004  0.78540131  0.79887472    -0.14700
C1730       C  0.83007497  0.79122100  0.80410089    -0.08000
C1731       C  0.87154840  0.85341604  0.72136971     0.05500
C1732       C  0.87294822  0.84504478  0.67860322    -0.09100
C1733       C  0.89438770  0.86524230  0.64948344     0.00500
C1734       C  0.91484171  0.89495414  0.66296468     0.00300
C1735       C  0.91378799  0.90300094  0.70636216    -0.12700
C1736       C  0.89241643  0.88250073  0.73554587     0.00800
C1737       C  0.89500292  0.85445523  0.60634379     0.40100
C1738       C  0.89191745  0.89184394  0.77960785     0.36700
C1739       C  0.88335404  0.81798458  0.78446840     0.36500
C1740       C  0.76530882  0.79919429  0.76412256     0.37200
N1741       N  0.89544315  0.84566092  0.57188415    -0.43600
N1742       N  0.89155292  0.89929777  0.81498326    -0.44000
N1743       N  0.74154013  0.79584644  0.75962056    -0.41400
N1744       N  0.90724001  0.82145616  0.78783777    -0.42800
H1745       H  0.83460266  0.77757314  0.82629623     0.13300
H1746       H  0.81409270  0.83924396  0.72274767     0.09800
H1747       H  0.85708156  0.82237765  0.66791698     0.10900
H1748       H  0.92931716  0.92560582  0.71737645     0.16700
C1749       C  0.66073600  0.68020286  0.74900238    -0.01500
C1750       C  0.65365175  0.64995744  0.74729580     0.07100
C1751       C  0.67004975  0.64070934  0.77313813    -0.07500
C1752       C  0.69354939  0.66107072  0.79961990     0.04500
C1753       C  0.70097861  0.69138334  0.80071561    -0.14700
C1754       C  0.68417878  0.70054002  0.77563904    -0.08000
C1755       C  0.63175614  0.62838816  0.71539144     0.05500
C1756       C  0.64235944  0.61660393  0.68349398    -0.09100
C1757       C  0.62320485  0.59665994  0.65202466     0.00500
C1758       C  0.59242326  0.58804099  0.65181682     0.00300
C1759       C  0.58191007  0.60017899  0.68360505    -0.12700
C1760       C  0.60108094  0.61962815  0.71577742     0.00800
C1761       C  0.63633915  0.58673718  0.61919089     0.40100
C1762       C  0.58863644  0.62950483  0.74964391     0.36700
C1763       C  0.64539409  0.69129720  0.72211166     0.36500
C1764       C  0.71099412  0.65069719  0.82280146     0.37200
N1765       N  0.64699288  0.57892609  0.59290529    -0.43600
N1766       N  0.57876253  0.63743762  0.77692496    -0.44000
N1767       N  0.72496120  0.64211541  0.84083442    -0.41400
N1768       N  0.63300154  0.70018341  0.70075730    -0.42800
H1769       H  0.68993398  0.72386114  0.77605498     0.13300
H1770       H  0.66506343  0.61764612  0.77149967     0.09800
H1771       H  0.66596165  0.62341570  0.68281878     0.10900
H1772       H  0.55859088  0.59421734  0.68368530     0.16700
C1773       C  0.83712015  0.84220425  0.31504287    -0.01500
C1774       C  0.84264549  0.83800599  0.35888823     0.07100
C1775       C  0.82187615  0.81146387  0.37997229    -0.07500
C1776       C  0.79771933  0.78842324  0.35783046     0.04500
C1777       C  0.79145577  0.79279149  0.31430582    -0.14700
C1778       C  0.81132080  0.82023417  0.29391863    -0.08000
C1779       C  0.86942284  0.86054055  0.38400402     0.05500
C1780       C  0.87795444  0.89111152  0.38244551    -0.09100
C1781       C  0.90156659  0.91225815  0.40799923     0.00500
C1782       C  0.91486331  0.90257499  0.43936195     0.00300
C1783       C  0.90666956  0.87228770  0.44089717    -0.12700
C1784       C  0.88548195  0.85166072  0.41205257     0.00800
C1785       C  0.91148586  0.94361176  0.40164233     0.40100
C1786       C  0.88123886  0.82173801  0.41154336     0.36700
C1787       C  0.85783512  0.86823077  0.29021956     0.36500
C1788       C  0.78150172  0.76011384  0.38039848     0.37200
N1789       N  0.91993265  0.96877374  0.39568712    -0.43600
N1790       N  0.87794267  0.79781458  0.41122378    -0.44000
N1791       N  0.76899081  0.73769662  0.39926672    -0.41400
N1792       N  0.87429901  0.88910838  0.27023530    -0.42800
H1793       H  0.80704010  0.82458129  0.26091333     0.13300
H1794       H  0.82500677  0.80817035  0.41402802     0.09800
H1795       H  0.86594243  0.89861937  0.36183663     0.10900
H1796       H  0.91728616  0.86475889  0.46423436     0.16700
C1797       C  0.67571350  0.66574021  0.37331781    -0.01500
C1798       C  0.64514523  0.65376918  0.36326283     0.07100
C1799       C  0.63713397  0.66619662  0.32858057    -0.07500
C1800       C  0.65915637  0.68980490  0.30350836     0.04500
C1801       C  0.68976924  0.70120998  0.31305644    -0.14700
C1802       C  0.69754251  0.68879430  0.34792111    -0.08000
C1803       C  0.62158892  0.62976675  0.39077672     0.05500
C1804       C  0.60319106  0.63655183  0.41607214    -0.09100
C1805       C  0.58428937  0.61661587  0.44801894     0.00500
C1806       C  0.58381055  0.58913921  0.45547327     0.00300
C1807       C  0.60082905  0.58164068  0.42784399    -0.12700
C1808       C  0.61934581  0.60147253  0.39554587     0.00800
C1809       C  0.56689741  0.62591288  0.47365502     0.40100
C1810       C  0.63613322  0.59245098  0.36801361     0.36700
C1811       C  0.68525912  0.65557501  0.41065629     0.36500
C1812       C  0.64982474  0.70269788  0.26947451     0.37200
N1813       N  0.55300674  0.63352588  0.49398382    -0.43600
N1814       N  0.64953909  0.58513598  0.34600624    -0.44000
N1815       N  0.64234655  0.71309991  0.24226751    -0.41400
N1816       N  0.69285820  0.64746752  0.44064995    -0.42800
H1817       H  0.72095798  0.69718801  0.35538705     0.13300
H1818       H  0.61364293  0.65760558  0.32135786     0.09800
H1819       H  0.60458780  0.65815923  0.41212584     0.10900
H1820       H  0.60003200  0.56031804  0.43177430     0.16700
C1821       C  0.76190933  0.76540389  0.00787971    -0.01500
C1822       C  0.75401452  0.73971806  0.03347144     0.07100
C1823       C  0.74740062  0.71288494  0.01266461    -0.07500
C1824       C  0.74816727  0.71123034  0.96719134     0.04500
C1825       C  0.75475730  0.73658411  0.94142770    -0.14700
C1826       C  0.76191187  0.76357106  0.96243633    -0.08000
C1827       C  0.75148166  0.74017928  0.08173905     0.05500
C1828       C  0.73169460  0.74853066  0.09978051    -0.09100
C1829       C  0.72872946  0.74961488  0.14489788     0.00500
C1830       C  0.74540786  0.74180608  0.17290915     0.00300
C1831       C  0.76510387  0.73331749  0.15510533    -0.12700
C1832       C  0.76819999  0.73235671  0.10988727     0.00800
C1833       C  0.70934190  0.75995063  0.16176211     0.40100
C1834       C  0.78918012  0.72399893  0.09324935     0.36700
C1835       C  0.77064312  0.79406528  0.02747588     0.36500
C1836       C  0.74333494  0.68358772  0.94823872     0.37200
N1837       N  0.69398359  0.76843647  0.17531775    -0.43600
N1838       N  0.80591463  0.71718393  0.07992736    -0.44000
N1839       N  0.73964971  0.66127911  0.93382586    -0.41400
N1840       N  0.77770948  0.81704787  0.04316920    -0.42800
H1841       H  0.76723324  0.78330536  0.94325587     0.13300
H1842       H  0.74150984  0.69309010  0.03205363     0.09800
H1843       H  0.71864548  0.75440843  0.07848810     0.10900
H1844       H  0.77813642  0.72754481  0.17660885     0.16700
loop_ 
_geom_bond_atom_site_label_1 
_geom_bond_atom_site_label_2 
_geom_bond_distance 
_geom_bond_site_symmetry_2 
_ccdc_geom_bond_type 
C1            C2   1.404       .  A
C1            C6   1.402       .  A
C1          C418   1.488       .  S
C2            C3   1.407       .  A
C2            H7   1.081       .  S
C3            C4   1.411       .  A
C3          C394   1.504       .  S
C4            C5   1.403       .  A
C4            H8   1.082       .  S
C5            C6   1.402       .  A
C5          C447   1.480       .  S
C6            H9   1.083       .  S
C10          C11   1.403       .  A
C10          C15   1.402       .  A
C10         C370   1.481       .  S
C11          C12   1.407       .  A
C11          H16   1.084       .  S
C12          C13   1.407       .  A
C12         C442   1.489       .  S
C13          C14   1.404       .  A
C13          H17   1.084       .  S
C14          C15   1.403       .  A
C14         C346   1.488       .  S
C15          H18   1.084       .  S
C19          C20   1.404       .  A
C19          C24   1.404       .  A
C19         C279   1.487       .  S
C20          C21   1.404       .  A
C20          H25   1.084       .  S
C21          C22   1.402       .  A
C21         C303   1.486       .  S
C22          C23   1.404       .  A
C22          H26   1.084       .  S
C23          C24   1.405       .  A
C23         C322   1.484       .  S
C24          H27   1.083       .  S
C28          C29   1.402       .  A
C28          C33   1.405       .  A
C28         C226   1.486       .  S
C29          C30   1.403       .  A
C29          H34   1.084       .  S
C30          C31   1.405       .  A
C30         C327   1.482       .  S
C31          C32   1.402       .  A
C31          H35   1.084       .  S
C32          C33   1.405       .  A
C32         C250   1.483       .  S
C33          H36   1.084       .  S
C37          C38   1.405       .  A
C37          C42   1.407       .  A
C37         C183   1.488       .  S
C38          C39   1.403       .  A
C38          H43   1.084       .  S
C39          C40   1.402       .  A
C39         C202   1.477       .  S
C40          C41   1.401       .  A
C40          H44   1.084       .  S
C41          C42   1.404       .  A
C41         C159   1.481       .  S
C42          H45   1.084       .  S
C46          C47   1.404       .  A
C46          C51   1.406       .  A
C46         C135   1.487       .  S
C47          C48   1.401       .  A
C47          H52   1.084       .  S
C48          C49   1.400       .  A
C48         C106   1.482       .  S
C49          C50   1.404       .  A
C49          H53   1.084       .  S
C50          C51   1.407       .  A
C50         C207   1.487       .  S
C51          H54   1.083       .  S
O55         Mn81   2.091   1_565  S
O55         C543   1.272       .  A
C56         C375   1.488       .  S
C56          O89   1.272       .  A
C56          O86   1.270       .  A
O57         Mn64   2.166       .  S
O57         Mn75   2.131       .  S
O57         Mn79   2.166       .  S
O57        Mn542   2.121       .  S
O58         Mn92   2.085       .  S
O58          C68   1.269       .  A
O59         Mn75   2.097       .  S
O59          C82   1.273       .  A
O60         Mn79   2.089       .  S
O60          C87   1.249       .  A
O61         Mn81   1.960       .  S
O61       Mn1014   1.962       .  S
O61          C77   1.219       .  S
C62         C298   1.484       .  S
C62          O65   1.253       .  A
C62          O88   1.215       .  S
O63         Mn64   2.164       .  S
O63         Mn97   2.120       .  S
O63         Mn79   2.163       .  S
O63       Mn1005   2.132       .  S
Mn64         O69   2.116       .  S
Mn64       O1015   2.099       .  S
Mn64        O557   2.106       .  S
Mn64       O1453   2.169       .  S
O65       Mn1001   2.112   1_455  S
O66         Mn73   2.102       .  S
O66          C68   1.274       .  A
C67         C255   1.489       .  S
C67          O93   1.254       .  A
C67          O80   1.220       .  S
C68         C423   1.494       .  S
O69          C94   1.256       .  A
O70         Mn73   2.117       .  S
O70         Mn92   2.131       .  S
O70       Mn1447   2.166   1_445  S
O70       Mn1462   2.155   1_445  S
O71         Mn75   1.955       .  S
O71         Mn97   1.957       .  S
O71          C94   1.216       .  S
C72         C178   1.482       .  S
C72          O74   1.271       .  A
C72        O1020   1.271       .  A
Mn73         O86   2.086       .  S
Mn73        O549   1.961   1_545  S
Mn73        O541   1.969   1_545  S
O74         Mn97   2.090       .  S
Mn75         O91   2.095       .  S
Mn75         O85   1.968       .  S
O76         Mn81   2.089   1_565  S
O76         C539   1.270       .  A
C77         C154   1.492       .  S
C77          O95   1.254       .  A
C78         C231   1.473       .  S
C78          O91   1.271       .  A
C78         O537   1.271       .  A
Mn79        O987   2.112       .  S
Mn79        O556   2.090       .  S
Mn79       O1453   2.158       .  S
O80         Mn83   1.964       .  S
O80        Mn534   1.974       .  S
Mn81        O518   2.122   1_545  S
Mn81         O99   1.957       .  S
C82         C274   1.485       .  S
C82         O516   1.271       .  A
Mn83         O90   2.091       .  S
Mn83         O98   2.093       .  S
Mn83        O985   2.132   1_455  S
Mn83         O88   1.952       .  S
C84         C130   1.470       .  S
C84         O100   1.272       .  A
C84        O1012   1.270       .  A
O85         Mn97   1.969       .  S
O85          C87   1.219       .  S
C87         C399   1.474       .  S
O88        Mn534   1.956       .  S
O89         Mn92   2.099       .  S
O90        C1006   1.270   1_455  A
Mn92        O983   1.962   1_455  S
Mn92       O1021   1.954   1_455  S
O93        Mn986   2.099   1_455  S
C94         C351   1.491       .  S
O95        Mn540   2.100   1_545  S
O96        Mn525   2.103   1_545  S
O96         C101   1.252       .  A
Mn97        O100   2.098       .  S
O98         C994   1.271   1_455  A
O99       Mn1014   1.954       .  S
O99         C101   1.217       .  S
C101        C111   1.481       .  S
C102        C107   1.399       .  A
C102       C1025   1.409   1_455  A
C102        C116   1.444       .  S
C103        C104   1.400       .  A
C103       C1024   1.409       .  A
C103        C108   1.478       .  S
C104        C105   1.400       .  A
C104        H123   1.085       .  S
C105        C106   1.414       .  A
C105        C117   1.444       .  S
C106       C1029   1.404       .  A
C107       C1028   1.404   1_455  A
C107        H122   1.085       .  S
C108        C109   1.402       .  A
C108        C113   1.406       .  A
C109        C110   1.404       .  A
C109        H124   1.083       .  S
C110        C111   1.414       .  A
C110        C114   1.443       .  S
C111        C112   1.406       .  A
C112        C113   1.395       .  A
C112        H125   1.083       .  S
C113        C115   1.444       .  S
C114        N118   1.157       .  T
C115        N119   1.157       .  T
C116        N121   1.157       .  T
C117        N120   1.157       .  T
C126        C127   1.412       .  A
C126        C131   1.400       .  A
C126        C140   1.444       .  S
C127        C128   1.404       .  A
C127        C132   1.484       .  S
C128        C129   1.402       .  A
C128        H147   1.083       .  S
C129        C130   1.408       .  A
C129        C141   1.443       .  S
C130        C131   1.401       .  A
C131        H146   1.084       .  S
C132        C137   1.410       .  A
C132       C1055   1.403       .  A
C133        C134   1.403       .  A
C133       C1054   1.403   1_455  A
C133        H148   1.085       .  S
C134       C1057   1.414   1_455  A
C134        C138   1.443       .  S
C135        C136   1.405       .  A
C135       C1056   1.414       .  A
C136        C137   1.398       .  A
C136        H149   1.085       .  S
C137        C139   1.444       .  S
C138        N142   1.157       .  T
C139        N143   1.157       .  T
C140        N145   1.157       .  T
C141        N144   1.157       .  T
C150        C155   1.403       .  A
C150       C1073   1.410       .  A
C150        C164   1.443       .  S
C151        C152   1.399       .  A
C151       C1072   1.410       .  A
C151        C156   1.486       .  S
C152        C153   1.399       .  A
C152        H171   1.085       .  S
C153        C154   1.421       .  A
C153        C165   1.445       .  S
C154       C1077   1.408       .  A
C155       C1076   1.408       .  A
C155        H170   1.084       .  S
C156        C157   1.404       .  A
C156       C1083   1.412       .  A
C157        C158   1.402       .  A
C157        H172   1.085       .  S
C158        C159   1.411       .  A
C158        C162   1.444       .  S
C159       C1082   1.403       .  A
C160        C161   1.401       .  A
C160       C1081   1.403   1_455  A
C160        H173   1.085       .  S
C161       C1078   1.412   1_455  A
C161        C163   1.444       .  S
C162        N166   1.157       .  T
C163        N167   1.157       .  T
C164        N169   1.157       .  T
C165        N168   1.157       .  T
C174        C175   1.410       .  A
C174        C179   1.401       .  A
C174        C188   1.444       .  S
C175       C1098   1.403       .  A
C175        C180   1.486       .  S
C176        C177   1.400       .  A
C176       C1097   1.403   1_455  A
C176        H195   1.084       .  S
C177       C1100   1.414   1_455  A
C177        C189   1.444       .  S
C178        C179   1.405       .  A
C178       C1099   1.414       .  A
C179        H194   1.081       .  S
C180        C185   1.412       .  A
C180       C1103   1.402       .  A
C181        C182   1.401       .  A
C181       C1102   1.402   1_455  A
C181        H196   1.085       .  S
C182       C1105   1.415   1_455  A
C182        C186   1.443       .  S
C183        C184   1.405       .  A
C183       C1104   1.415       .  A
C184        C185   1.400       .  A
C184        H197   1.085       .  S
C185        C187   1.444       .  S
C186        N190   1.157       .  T
C187        N191   1.157       .  T
C188        N193   1.157       .  T
C189        N192   1.157       .  T
C198        C199   1.412       .  A
C198        C203   1.400       .  A
C198        C212   1.444       .  S
C199       C1122   1.404       .  A
C199        C204   1.486       .  S
C200        C201   1.400       .  A
C200       C1121   1.404   1_455  A
C200        H219   1.085       .  S
C201       C1124   1.410   1_455  A
C201        C213   1.443       .  S
C202        C203   1.402       .  A
C202       C1123   1.410       .  A
C203        H218   1.085       .  S
C204        C205   1.404       .  A
C204        C209   1.410       .  A
C205        C206   1.402   1_554  A
C205        H220   1.084       .  S
C206        C207   1.414       .  A
C206        C210   1.444       .  S
C207        C208   1.406       .  A
C208        C209   1.398   1_556  A
C208       H1143   1.084       .  S
C209       C1133   1.444       .  S
C210        N214   1.157       .  T
C211       C1131   1.444       .  S
C211        N215   1.157       .  T
C212        N217   1.157       .  T
C213        N216   1.157       .  T
H221       C1130   1.084       .  S
C222        C223   1.410       .  A
C222        C227   1.400       .  A
C222        C697   1.444       .  S
C223        C224   1.400       .  A
C223        C228   1.482       .  S
C224        C225   1.402       .  A
C224        H243   1.085       .  S
C225        C226   1.415       .  A
C225        C237   1.444       .  S
C226        C227   1.404       .  A
C227        H703   1.085       .  S
C228        C229   1.403       .  A
C228        C233   1.409       .  A
C229        C230   1.403       .  A
C229        H244   1.084       .  S
C230        C231   1.410       .  A
C230        C234   1.442       .  S
C231        C232   1.402       .  A
C232        C233   1.399       .  A
C232        H706   1.085       .  S
C233        C696   1.444       .  S
C234        N238   1.157       .  T
C235        C694   1.444       .  S
C235        N239   1.157       .  T
C236        C683   1.444   1_545  S
C236        N241   1.157       .  T
C237        N240   1.157       .  T
H242        C688   1.085   1_545  S
H245        C693   1.085       .  S
C246        C247   1.410       .  A
C246        C251   1.400       .  A
C246        C721   1.444       .  S
C247        C248   1.403       .  A
C247        C252   1.484       .  S
C248        C249   1.403       .  A
C248        H267   1.084       .  S
C249        C250   1.413       .  A
C249        C261   1.444       .  S
C250        C251   1.403       .  A
C251        H727   1.084       .  S
C252        C253   1.400       .  A
C252        C257   1.408       .  A
C253        C254   1.398       .  A
C253        H268   1.085       .  S
C254        C255   1.419       .  A
C254        C258   1.445       .  S
C255        C256   1.408       .  A
C256        C257   1.403       .  A
C256        H730   1.083       .  S
C257        C720   1.443       .  S
C258        N262   1.157       .  T
C259        C718   1.443       .  S
C259        N263   1.157       .  T
C260        C707   1.444       .  S
C260        N265   1.157       .  T
C261        N264   1.157       .  T
H266        C712   1.084       .  S
H269        C717   1.084       .  S
C270        C271   1.411       .  A
C270        C275   1.401       .  A
C270        C745   1.444       .  S
C271        C272   1.403       .  A
C271        C276   1.487       .  S
C272        C273   1.401       .  A
C272        H291   1.085       .  S
C273        C274   1.415       .  A
C273        C285   1.444       .  S
C274        C275   1.407       .  A
C275        H751   1.085       .  S
C276        C277   1.404       .  A
C276        C281   1.412       .  A
C277        C278   1.402       .  A
C277        H292   1.084       .  S
C278        C279   1.413       .  A
C278        C282   1.444       .  S
C279        C280   1.405       .  A
C280        C281   1.401       .  A
C280        H293   1.084       .  S
C281        C283   1.444       .  S
C282        N286   1.157       .  T
C283        N748   1.157       .  T
C284        C731   1.444   1_545  S
C284        N289   1.157       .  T
C285        N288   1.157       .  T
N287        C744   1.157       .  T
H290        C736   1.085   1_545  S
C294        C295   1.409       .  A
C294        C299   1.405       .  A
C294        C308   1.443       .  S
C295        C296   1.397       .  A
C295        C300   1.480       .  S
C296        C297   1.396       .  A
C296        H315   1.085       .  S
C297        C298   1.418       .  A
C297        C309   1.444       .  S
C298        C299   1.407       .  A
C299        H314   1.084       .  S
C300        C301   1.401       .  A
C300        C305   1.409       .  A
C301        C302   1.402       .  A
C301        H316   1.085       .  S
C302        C303   1.415       .  A
C302        C767   1.444       .  S
C303        C304   1.405       .  A
C304        C305   1.399       .  A
C304        H317   1.085       .  S
C305        C307   1.443       .  S
C306        C763   1.444   1_545  S
C306        N310   1.157       .  T
C307        N311   1.157       .  T
C308        N313   1.157       .  T
C309        N773   1.157       .  T
N312        C770   1.157       .  T
C318        C319   1.409       .  A
C318        C323   1.399       .  A
C318        C332   1.444       .  S
C319        C320   1.402       .  A
C319        C324   1.481       .  S
C320        C321   1.401       .  A
C320        H339   1.084       .  S
C321        C322   1.414       .  A
C321        C333   1.444       .  S
C322        C323   1.405       .  A
C323        H338   1.084       .  S
C324        C325   1.401       .  A
C324        C329   1.409       .  A
C325        C326   1.400   1_554  A
C325        H801   1.084       .  S
C326        C327   1.413       .  A
C326        C791   1.444       .  S
C327        C328   1.405       .  A
C328        C329   1.399   1_556  A
C328        H341   1.085       .  S
C329        C331   1.444       .  S
C330        C787   1.444   1_545  S
C330        N334   1.157       .  T
C331        N335   1.157       .  T
C332        N337   1.157       .  T
C333        N336   1.157       .  T
H340        C786   1.085   1_545  S
C342        C343   1.409       .  A
C342        C347   1.402       .  A
C342        C356   1.444       .  S
C343        C344   1.402       .  A
C343        C348   1.483       .  S
C344        C345   1.401       .  A
C344        H363   1.085       .  S
C345        C346   1.415       .  A
C345        C357   1.445       .  S
C346        C347   1.406       .  A
C347        H362   1.085       .  S
C348        C349   1.397       .  A
C348        C353   1.410       .  A
C349        C350   1.397       .  A
C349        H364   1.088       .  S
C350        C351   1.422       .  A
C350        C354   1.446       .  S
C351        C352   1.407       .  A
C352        C353   1.404       .  A
C352        H365   1.085       .  S
C353        C355   1.443       .  S
C354        N358   1.158       .  T
C355        N359   1.157       .  T
C356        N361   1.157       .  T
C357        N360   1.157       .  T
C366        C367   1.414       .  A
C366        C371   1.402       .  A
C366        C380   1.444       .  S
C367        C368   1.405       .  A
C367        C372   1.489       .  S
C368        C369   1.400       .  A
C368        H387   1.085       .  S
C369        C370   1.409       .  A
C369        C381   1.443       .  S
C370        C371   1.403       .  A
C371        H386   1.085       .  S
C372        C373   1.402       .  A
C372        C377   1.411       .  A
C373        C374   1.398       .  A
C373        H388   1.085       .  S
C374        C375   1.417       .  A
C374        C378   1.445       .  S
C375        C376   1.407       .  A
C376        C377   1.404       .  A
C376        H389   1.080       .  S
C377        C379   1.443       .  S
C378        N382   1.157       .  T
C379        N383   1.157       .  T
C380        N385   1.157       .  T
C381        N384   1.157       .  T
C390        C391   1.415       .  A
C390        C395   1.403       .  A
C390        C404   1.444       .  S
C391        C392   1.402       .  A
C391        C396   1.499       .  S
C392        C393   1.396       .  A
C392        H411   1.085       .  S
C393        C394   1.421       .  A
C393        C405   1.444       .  S
C394        C395   1.411       .  A
C395        H410   1.084       .  S
C396        C397   1.408       .  A
C396        C401   1.419       .  A
C397        C398   1.401       .  A
C397        H412   1.083       .  S
C398        C399   1.409       .  A
C398        C402   1.443       .  S
C399        C400   1.399       .  A
C400        C401   1.396       .  A
C400        H413   1.084       .  S
C401        C403   1.445       .  S
C402        N406   1.157       .  T
C403        N407   1.157       .  T
C404        N409   1.157       .  T
C405        N408   1.157       .  T
C414        C415   1.409       .  A
C414        C419   1.394       .  A
C414        C428   1.445       .  S
C415        C416   1.406       .  A
C415        C420   1.486       .  S
C416        C417   1.406       .  A
C416        H435   1.084       .  S
C417        C418   1.413       .  A
C417        C429   1.443       .  S
C418        C419   1.404       .  A
C419        H434   1.083       .  S
C420        C421   1.400       .  A
C420        C425   1.411       .  A
C421        C422   1.401       .  A
C421        H436   1.086       .  S
C422        C423   1.422       .  A
C422        C426   1.444       .  S
C423        C424   1.408       .  A
C424        C425   1.399       .  A
C424        H437   1.085       .  S
C425        C427   1.445       .  S
C426        N430   1.157       .  T
C427        N431   1.157       .  T
C428        N433   1.157       .  T
C429        N432   1.157       .  T
C438        C439   1.412       .  A
C438        C443   1.400   1_554  A
C438        C452   1.444       .  S
C439        C440   1.404       .  A
C439        C444   1.490       .  S
C440        C441   1.402   1_554  A
C440        H459   1.084       .  S
C441        C442   1.414       .  A
C441        C453   1.443       .  S
C442        C443   1.406       .  A
C443        H458   1.084       .  S
C444        C445   1.404       .  A
C444        C449   1.413       .  A
C445        C446   1.399       .  A
C445        H460   1.084       .  S
C446        C447   1.410       .  A
C446        C450   1.444       .  S
C447        C448   1.403       .  A
C448        C449   1.403       .  A
C448        H461   1.084       .  S
C449        C451   1.444       .  S
C450        N454   1.157       .  T
C451        N455   1.157       .  T
C452        N457   1.157       .  T
C453        N456   1.157       .  T
C462        C463   1.405       .  A
C462        C467   1.402       .  A
C462        C879   1.488       .  S
C463        C464   1.408       .  A
C463        H468   1.082       .  S
C464        C465   1.410       .  A
C464        C855   1.503       .  S
C465        C466   1.403       .  A
C465        H469   1.083       .  S
C466        C467   1.402       .  A
C466        C908   1.479       .  S
C467        H470   1.083       .  S
C471        C472   1.405       .  A
C471        C476   1.402       .  A
C471        C831   1.485       .  S
C472        C473   1.409       .  A
C472        H477   1.083       .  S
C473        C474   1.407       .  A
C473        C903   1.491       .  S
C474        C475   1.403       .  A
C474        H478   1.084       .  S
C475        C476   1.403       .  A
C475        C807   1.487       .  S
C476        H479   1.084       .  S
C480        C481   1.406       .  A
C480        C485   1.405       .  A
C480        C740   1.491       .  S
C481        C482   1.405       .  A
C481        H486   1.084       .  S
C482        C483   1.402       .  A
C482        C764   1.485       .  S
C483        C484   1.403       .  A
C483        H487   1.084       .  S
C484        C485   1.404       .  A
C484        C783   1.484       .  S
C485        H488   1.083       .  S
C489        C490   1.402       .  A
C489        C494   1.405       .  A
C489        C687   1.485       .  S
C490        C491   1.403       .  A
C490        H495   1.084       .  S
C491        C492   1.405       .  A
C491        C788   1.484       .  S
C492        C493   1.402       .  A
C492        H496   1.083       .  S
C493        C494   1.405       .  A
C493        C711   1.484       .  S
C494        H497   1.084       .  S
C498        C499   1.404       .  A
C498        C503   1.405       .  A
C498        C644   1.486       .  S
C499        C500   1.403       .  A
C499        H504   1.084       .  S
C500        C501   1.402       .  A
C500        C663   1.478       .  S
C501        C502   1.401       .  A
C501        H505   1.084       .  S
C502        C503   1.404       .  A
C502        C620   1.481       .  S
C503        H506   1.084       .  S
C507        C508   1.405       .  A
C507        C512   1.406       .  A
C507        C596   1.489       .  S
C508        C509   1.403       .  A
C508        H513   1.084       .  S
C509        C510   1.401       .  A
C509        C567   1.485       .  S
C510        C511   1.405       .  A
C510        H514   1.084       .  S
C511        C512   1.407       .  A
C511        C668   1.489       .  S
C512        H515   1.083       .  S
O516       Mn542   2.089       .  S
C517        C836   1.491       .  S
C517        O550   1.273       .  A
C517        O547   1.270       .  A
O518       Mn525   2.167       .  S
O518       Mn536   2.131       .  S
O518       Mn540   2.163       .  S
O519       Mn553   2.083       .  S
O519        C529   1.269       .  A
O520       Mn536   2.096       .  S
O520        C543   1.273       .  A
O521       Mn540   2.086       .  S
O521        C548   1.249       .  A
O522      Mn1475   1.964       .  S
O522       Mn542   1.962       .  S
O522        C538   1.221       .  S
C523        C759   1.482       .  S
C523        O526   1.253       .  A
C523        O549   1.217       .  S
O524      Mn1466   2.133       .  S
O524       Mn525   2.162       .  S
O524       Mn558   2.123       .  S
O524       Mn540   2.166       .  S
Mn525      O1476   2.104       .  S
Mn525       O530   2.106       .  S
Mn525       O992   2.166   1_565  S
O526      Mn1462   2.105   1_455  S
O527       Mn534   2.106       .  S
O527        C529   1.275       .  A
C528        C716   1.492       .  S
C528        O554   1.254       .  A
C528        O541   1.219       .  S
C529        C884   1.494       .  S
O530        C555   1.255       .  A
O531       Mn986   2.169   1_455  S
O531       Mn534   2.117       .  S
O531       Mn553   2.132       .  S
O531      Mn1001   2.158   1_455  S
O532       Mn536   1.959       .  S
O532       Mn558   1.960       .  S
O532        C555   1.218       .  S
C533        C639   1.480       .  S
C533       O1481   1.271       .  A
C533        O535   1.271       .  A
Mn534       O547   2.085       .  S
O535       Mn558   2.090       .  S
Mn536       O552   2.094       .  S
Mn536       O546   1.969       .  S
O537       Mn542   2.093       .  S
C538        C615   1.490       .  S
C538        O556   1.253       .  A
C539        C692   1.470       .  S
C539        O552   1.271       .  A
Mn540      O1448   2.105       .  S
Mn540       O992   2.155   1_565  S
O541       Mn544   1.961       .  S
Mn542       O560   1.958       .  S
C543        C735   1.491       .  S
Mn544       O551   2.097       .  S
Mn544       O559   2.091       .  S
Mn544      O1446   2.133   1_455  S
Mn544       O549   1.959       .  S
C545        C591   1.473       .  S
C545       O1473   1.272       .  A
C545        O561   1.272       .  A
O546       Mn558   1.970       .  S
O546        C548   1.221       .  S
C548        C860   1.475       .  S
O550       Mn553   2.105       .  S
O551       C1467   1.272   1_455  A
Mn553      O1444   1.964   1_455  S
Mn553      O1482   1.954   1_455  S
O554      Mn1447   2.104   1_455  S
C555        C812   1.487       .  S
O557        C562   1.252       .  A
Mn558       O561   2.098       .  S
O559       C1455   1.271   1_455  A
O560      Mn1475   1.954       .  S
O560        C562   1.217       .  S
C562        C572   1.481       .  S
C563       C1486   1.409   1_455  A
C563        C568   1.400       .  A
C563        C577   1.444       .  S
C564       C1485   1.409       .  A
C564        C565   1.401       .  A
C564        C569   1.480       .  S
C565        C566   1.401       .  A
C565        H584   1.085       .  S
C566        C567   1.414       .  A
C566        C578   1.444       .  S
C567       C1490   1.405       .  A
C568       C1489   1.405   1_455  A
C568        H583   1.085       .  S
C569        C570   1.403       .  A
C569        C574   1.406       .  A
C570        C571   1.405       .  A
C570        H585   1.083       .  S
C571        C572   1.414       .  A
C571        C575   1.443       .  S
C572        C573   1.406       .  A
C573        C574   1.396       .  A
C573        H586   1.083       .  S
C574        C576   1.444       .  S
C575        N579   1.157       .  T
C576        N580   1.157       .  T
C577        N582   1.157       .  T
C578        N581   1.157       .  T
C587        C588   1.413       .  A
C587        C592   1.400       .  A
C587        C601   1.444       .  S
C588        C589   1.405       .  A
C588        C593   1.488       .  S
C589        C590   1.404       .  A
C589        H608   1.084       .  S
C590        C591   1.409       .  A
C590        C602   1.443       .  S
C591        C592   1.401       .  A
C592        H607   1.084       .  S
C593       C1516   1.404       .  A
C593        C598   1.411       .  A
C594       C1515   1.404   1_455  A
C594        C595   1.404       .  A
C594        H609   1.085       .  S
C595       C1518   1.415   1_455  A
C595        C599   1.444       .  S
C596       C1517   1.415       .  A
C596        C597   1.405       .  A
C597        C598   1.399       .  A
C597        H610   1.085       .  S
C598        C600   1.444       .  S
C599        N603   1.157       .  T
C600        N604   1.157       .  T
C601        N606   1.157       .  T
C602        N605   1.157       .  T
C611       C1534   1.409       .  A
C611        C616   1.401       .  A
C611        C625   1.444       .  S
C612       C1533   1.409       .  A
C612        C613   1.400       .  A
C612        C617   1.485       .  S
C613        C614   1.398       .  A
C613        H632   1.085       .  S
C614        C615   1.419       .  A
C614        C626   1.445       .  S
C615       C1538   1.409       .  A
C616       C1537   1.409       .  A
C616        H631   1.084       .  S
C617        C618   1.403       .  A
C617       C1544   1.412       .  A
C618        C619   1.400       .  A
C618        H633   1.085       .  S
C619        C620   1.411       .  A
C619        C623   1.444       .  S
C620       C1543   1.403       .  A
C621       C1542   1.403   1_455  A
C621        C622   1.401       .  A
C621        H634   1.085       .  S
C622       C1539   1.412   1_455  A
C622        C624   1.444       .  S
C623        N627   1.157       .  T
C624        N628   1.157       .  T
C625        N630   1.157       .  T
C626        N629   1.157       .  T
C635        C636   1.410       .  A
C635        C640   1.400       .  A
C635        C649   1.444       .  S
C636       C1559   1.402       .  A
C636        C641   1.485       .  S
C637       C1558   1.402   1_455  A
C637        C638   1.400       .  A
C637        H656   1.084       .  S
C638       C1561   1.414   1_455  A
C638        C650   1.445       .  S
C639       C1560   1.414       .  A
C639        C640   1.405       .  A
C640        H655   1.081       .  S
C641       C1564   1.402       .  A
C641        C646   1.411       .  A
C642       C1563   1.402   1_455  A
C642        C643   1.402       .  A
C642        H657   1.085       .  S
C643       C1566   1.414   1_455  A
C643        C647   1.443       .  S
C644       C1565   1.414       .  A
C644        C645   1.405       .  A
C645        C646   1.400       .  A
C645        H658   1.084       .  S
C646        C648   1.444       .  S
C647        N651   1.157       .  T
C648        N652   1.157       .  T
C649        N654   1.157       .  T
C650        N653   1.157       .  T
C659        C660   1.411       .  A
C659        C664   1.399       .  A
C659        C673   1.444       .  S
C660       C1583   1.404       .  A
C660        C665   1.486       .  S
C661       C1582   1.404   1_455  A
C661        C662   1.400       .  A
C661        H680   1.085       .  S
C662       C1585   1.410   1_455  A
C662        C674   1.443       .  S
C663       C1584   1.410       .  A
C663        C664   1.402       .  A
C664        H679   1.085       .  S
C665        C666   1.404       .  A
C665        C670   1.410       .  A
C666        C667   1.402   1_554  A
C666        H681   1.084       .  S
C667        C668   1.415       .  A
C667        C671   1.444       .  S
C668        C669   1.406       .  A
C669        C670   1.399   1_556  A
C669       H1604   1.084       .  S
C670       C1594   1.444       .  S
C671        N675   1.157       .  T
C672       C1592   1.444       .  S
C672        N676   1.157       .  T
C673        N678   1.157       .  T
C674        N677   1.157       .  T
H682       C1591   1.084       .  S
C683        C684   1.409       .  A
C683        C688   1.400       .  A
C684        C685   1.400       .  A
C684        C689   1.480       .  S
C685        C686   1.402       .  A
C685        H704   1.085       .  S
C686        C687   1.416       .  A
C686        C698   1.444       .  S
C687        C688   1.404       .  A
C689        C690   1.403       .  A
C689        C694   1.409       .  A
C690        C691   1.403       .  A
C690        H705   1.084       .  S
C691        C692   1.409       .  A
C691        C695   1.442       .  S
C692        C693   1.401       .  A
C693        C694   1.398       .  A
C695        N699   1.157       .  T
C696        N700   1.157       .  T
C697        N702   1.157       .  T
C698        N701   1.157       .  T
C707        C708   1.411   1_545  A
C707        C712   1.401       .  A
C708        C709   1.404       .  A
C708        C713   1.487       .  S
C709        C710   1.403       .  A
C709        H728   1.084       .  S
C710        C711   1.413       .  A
C710        C722   1.444       .  S
C711        C712   1.404   1_565  A
C713        C714   1.400       .  A
C713        C718   1.410       .  A
C714        C715   1.398       .  A
C714        H729   1.085       .  S
C715        C716   1.420       .  A
C715        C719   1.445       .  S
C716        C717   1.408       .  A
C717        C718   1.404       .  A
C719        N723   1.157       .  T
C720        N724   1.157       .  T
C721        N726   1.157       .  T
C722        N725   1.157       .  T
C731        C732   1.411       .  A
C731        C736   1.402       .  A
C732        C733   1.402       .  A
C732        C737   1.489       .  S
C733        C734   1.400       .  A
C733        H752   1.085       .  S
C734        C735   1.417       .  A
C734        C746   1.444       .  S
C735        C736   1.410       .  A
C737        C738   1.404       .  A
C737        C742   1.412       .  A
C738        C739   1.401       .  A
C738        H753   1.084       .  S
C739        C740   1.415       .  A
C739        C743   1.444       .  S
C740        C741   1.406       .  A
C741        C742   1.401       .  A
C741        H754   1.084   1_565  S
C742        C744   1.444   1_565  S
C743        N747   1.157       .  T
C745        N750   1.157       .  T
C746        N749   1.157       .  T
C755        C756   1.409       .  A
C755        C760   1.404       .  A
C755        C769   1.443       .  S
C756        C757   1.398       .  A
C756        C761   1.480       .  S
C757        C758   1.397       .  A
C757        H776   1.085   1_565  S
C758        C759   1.417       .  A
C758        C770   1.444   1_565  S
C759        C760   1.407       .  A
C760        H775   1.085       .  S
C761        C762   1.401       .  A
C761        C766   1.409       .  A
C762        C763   1.401       .  A
C762        H777   1.085   1_565  S
C763        C764   1.415       .  A
C764        C765   1.405       .  A
C765        C766   1.400       .  A
C765        H778   1.084       .  S
C766        C768   1.444       .  S
C767        N771   1.157       .  T
C768        N772   1.157       .  T
C769        N774   1.157       .  T
C779        C780   1.409       .  A
C779        C784   1.399       .  A
C779        C793   1.444       .  S
C780        C781   1.401       .  A
C780        C785   1.480       .  S
C781        C782   1.400       .  A
C781        H800   1.084   1_565  S
C782        C783   1.414       .  A
C782        C794   1.444   1_565  S
C783        C784   1.405       .  A
C784        H799   1.084       .  S
C785        C786   1.401       .  A
C785        C790   1.409       .  A
C786        C787   1.399   1_554  A
C787        C788   1.414       .  A
C788        C789   1.406       .  A
C789        C790   1.400   1_556  A
C789        H802   1.085       .  S
C790        C792   1.444       .  S
C791        N795   1.157       .  T
C792        N796   1.157       .  T
C793        N798   1.157       .  T
C794        N797   1.157       .  T
C803        C804   1.408       .  A
C803        C808   1.402       .  A
C803        C817   1.444       .  S
C804        C805   1.401       .  A
C804        C809   1.481       .  S
C805        C806   1.401       .  A
C805        H824   1.085       .  S
C806        C807   1.415       .  A
C806        C818   1.445       .  S
C807        C808   1.406       .  A
C808        H823   1.084       .  S
C809        C810   1.397       .  A
C809        C814   1.409       .  A
C810        C811   1.397       .  A
C810        H825   1.090       .  S
C811        C812   1.420       .  A
C811        C815   1.445       .  S
C812        C813   1.407       .  A
C813        C814   1.403       .  A
C813        H826   1.087       .  S
C814        C816   1.443       .  S
C815        N819   1.158       .  T
C816        N820   1.157       .  T
C817        N822   1.157       .  T
C818        N821   1.157       .  T
C827        C828   1.413       .  A
C827        C832   1.402       .  A
C827        C841   1.444       .  S
C828        C829   1.405       .  A
C828        C833   1.490       .  S
C829        C830   1.401       .  A
C829        H848   1.084       .  S
C830        C831   1.411       .  A
C830        C842   1.442       .  S
C831        C832   1.405       .  A
C832        H847   1.085       .  S
C833        C834   1.401       .  A
C833        C838   1.411       .  A
C834        C835   1.399       .  A
C834        H849   1.085       .  S
C835        C836   1.418       .  A
C835        C839   1.445       .  S
C836        C837   1.408       .  A
C837        C838   1.405       .  A
C837        H850   1.082       .  S
C838        C840   1.443       .  S
C839        N843   1.157       .  T
C840        N844   1.157       .  T
C841        N846   1.157       .  T
C842        N845   1.157       .  T
C851        C852   1.415       .  A
C851        C856   1.404       .  A
C851        C865   1.444       .  S
C852        C853   1.403       .  A
C852        C857   1.500       .  S
C853        C854   1.396       .  A
C853        H872   1.085       .  S
C854        C855   1.420       .  A
C854        C866   1.444       .  S
C855        C856   1.411       .  A
C856        H871   1.084       .  S
C857        C858   1.409       .  A
C857        C862   1.419       .  A
C858        C859   1.401       .  A
C858        H873   1.083       .  S
C859        C860   1.410       .  A
C859        C863   1.443       .  S
C860        C861   1.399       .  A
C861        C862   1.397       .  A
C861        H874   1.084       .  S
C862        C864   1.445       .  S
C863        N867   1.157       .  T
C864        N868   1.157       .  T
C865        N870   1.157       .  T
C866        N869   1.157       .  T
C875        C876   1.410       .  A
C875        C880   1.395       .  A
C875        C889   1.445       .  S
C876        C877   1.406       .  A
C876        C881   1.488       .  S
C877        C878   1.407       .  A
C877        H896   1.085       .  S
C878        C879   1.413       .  A
C878        C890   1.443       .  S
C879        C880   1.404       .  A
C880        H895   1.084       .  S
C881        C882   1.400       .  A
C881        C886   1.411       .  A
C882        C883   1.402       .  A
C882        H897   1.086       .  S
C883        C884   1.422       .  A
C883        C887   1.444       .  S
C884        C885   1.408       .  A
C885        C886   1.401       .  A
C885        H898   1.085       .  S
C886        C888   1.444       .  S
C887        N891   1.157       .  T
C888        N892   1.157       .  T
C889        N894   1.157       .  T
C890        N893   1.157       .  T
C899        C900   1.412       .  A
C899        C904   1.400   1_554  A
C899        C913   1.444       .  S
C900        C901   1.404       .  A
C900        C905   1.490       .  S
C901        C902   1.402   1_554  A
C901        H920   1.084       .  S
C902        C903   1.415       .  A
C902        C914   1.442       .  S
C903        C904   1.407       .  A
C904        H919   1.084       .  S
C905        C906   1.405       .  A
C905        C910   1.414       .  A
C906        C907   1.399       .  A
C906        H921   1.084       .  S
C907        C908   1.409       .  A
C907        C911   1.444       .  S
C908        C909   1.403       .  A
C909        C910   1.403       .  A
C909        H922   1.084       .  S
C910        C912   1.444       .  S
C911        N915   1.157       .  T
C912        N916   1.157       .  T
C913        N918   1.157       .  T
C914        N917   1.157       .  T
C923        C924   1.404       .  A
C923        C928   1.402       .  A
C923       C1340   1.488       .  S
C924        C925   1.407       .  A
C924        H929   1.081       .  S
C925        C926   1.411       .  A
C925       C1316   1.504       .  S
C926        C927   1.403       .  A
C926        H930   1.082       .  S
C927        C928   1.402       .  A
C927       C1369   1.480       .  S
C928        H931   1.083       .  S
C932        C933   1.403       .  A
C932        C937   1.402       .  A
C932       C1292   1.481       .  S
C933        C934   1.407       .  A
C933        H938   1.083       .  S
C934        C935   1.407       .  A
C934       C1364   1.489       .  S
C935        C936   1.404       .  A
C935        H939   1.084       .  S
C936        C937   1.403       .  A
C936       C1268   1.488       .  S
C937        H940   1.084       .  S
C941        C942   1.404       .  A
C941        C946   1.404       .  A
C941       C1201   1.487       .  S
C942        C943   1.404       .  A
C942        H947   1.084       .  S
C943        C944   1.402       .  A
C943       C1225   1.486       .  S
C944        C945   1.404       .  A
C944        H948   1.084       .  S
C945        C946   1.405       .  A
C945       C1244   1.484       .  S
C946        H949   1.083       .  S
C950        C951   1.402       .  A
C950        C955   1.405       .  A
C950       C1148   1.486       .  S
C951        C952   1.403       .  A
C951        H956   1.084       .  S
C952        C953   1.405       .  A
C952       C1249   1.482       .  S
C953        C954   1.402       .  A
C953        H957   1.084       .  S
C954        C955   1.405       .  A
C954       C1172   1.483       .  S
C955        H958   1.084       .  S
C959        C960   1.405       .  A
C959        C964   1.407       .  A
C959       C1105   1.488       .  S
C960        C961   1.403       .  A
C960        H965   1.084       .  S
C961        C962   1.402       .  A
C961       C1124   1.477       .  S
C962        C963   1.401       .  A
C962        H966   1.084       .  S
C963        C964   1.404       .  A
C963       C1081   1.481       .  S
C964        H967   1.084       .  S
C968        C969   1.404       .  A
C968        C973   1.406       .  A
C968       C1057   1.487       .  S
C969        C970   1.401       .  A
C969        H974   1.084       .  S
C970        C971   1.400       .  A
C970       C1028   1.482       .  S
C971        C972   1.404       .  A
C971        H975   1.084       .  S
C972        C973   1.407       .  A
C972       C1129   1.487       .  S
C973        H976   1.083       .  S
O977      Mn1003   2.091   1_565  S
O977       C1465   1.272       .  A
C978       C1297   1.488       .  S
C978       O1011   1.272       .  A
C978       O1008   1.270       .  A
O979       Mn986   2.166       .  S
O979       Mn997   2.131       .  S
O979      Mn1001   2.166       .  S
O979      Mn1464   2.121       .  S
O980      Mn1014   2.085       .  S
O980        C990   1.269       .  A
O981       Mn997   2.097       .  S
O981       C1004   1.273       .  A
O982      Mn1001   2.089       .  S
O982       C1009   1.249       .  A
O983      Mn1003   1.960       .  S
O983        C999   1.219       .  S
C984       C1220   1.484       .  S
C984        O987   1.253       .  A
C984       O1010   1.215       .  S
O985       Mn986   2.164       .  S
O985      Mn1019   2.120       .  S
O985      Mn1001   2.163       .  S
Mn986       O991   2.116       .  S
Mn986      O1479   2.106       .  S
O988       Mn995   2.102       .  S
O988        C990   1.274       .  A
C989       C1177   1.489       .  S
C989       O1015   1.254       .  A
C989       O1002   1.220       .  S
C990       C1345   1.494       .  S
O991       C1016   1.256       .  A
O992       Mn995   2.117       .  S
O992      Mn1014   2.131       .  S
O993       Mn997   1.955       .  S
O993      Mn1019   1.957       .  S
O993       C1016   1.216       .  S
C994       C1100   1.482       .  S
C994        O996   1.271       .  A
Mn995      O1008   2.086       .  S
Mn995      O1471   1.961   1_545  S
Mn995      O1463   1.969   1_545  S
O996      Mn1019   2.090       .  S
Mn997      O1013   2.095       .  S
Mn997      O1007   1.968       .  S
O998      Mn1003   2.089   1_565  S
O998       C1461   1.270       .  A
C999       C1076   1.492       .  S
C999       O1017   1.254       .  A
C1000      C1153   1.473       .  S
C1000      O1459   1.271       .  A
C1000      O1013   1.271       .  A
Mn1001     O1478   2.090       .  S
O1002     Mn1456   1.974       .  S
O1002     Mn1005   1.964       .  S
Mn1003     O1440   2.122   1_545  S
Mn1003     O1021   1.957       .  S
C1004      C1196   1.485       .  S
C1004      O1438   1.271       .  A
Mn1005     O1012   2.091       .  S
Mn1005     O1020   2.093       .  S
Mn1005     O1010   1.952       .  S
C1006      C1052   1.470       .  S
C1006      O1022   1.272       .  A
O1007     Mn1019   1.969       .  S
O1007      C1009   1.219       .  S
C1009      C1321   1.474       .  S
O1010     Mn1456   1.956       .  S
O1011     Mn1014   2.099       .  S
C1016      C1273   1.491       .  S
O1017     Mn1462   2.100   1_545  S
O1018     Mn1447   2.103   1_545  S
O1018      C1023   1.252       .  A
Mn1019     O1022   2.098       .  S
O1021      C1023   1.217       .  S
C1023      C1033   1.481       .  S
C1024      C1029   1.399       .  A
C1024      C1038   1.444       .  S
C1025      C1026   1.400       .  A
C1025      C1030   1.478       .  S
C1026      C1027   1.400       .  A
C1026      H1045   1.085       .  S
C1027      C1028   1.414       .  A
C1027      C1039   1.444       .  S
C1029      H1044   1.085       .  S
C1030      C1031   1.402       .  A
C1030      C1035   1.406       .  A
C1031      C1032   1.404       .  A
C1031      H1046   1.083   1_655  S
C1032      C1033   1.414       .  A
C1032      C1036   1.443   1_655  S
C1033      C1034   1.406       .  A
C1034      C1035   1.395       .  A
C1034      H1047   1.083       .  S
C1035      C1037   1.444       .  S
C1036      N1040   1.157       .  T
C1037      N1041   1.157       .  T
C1038      N1043   1.157       .  T
C1039      N1042   1.157       .  T
C1048      C1049   1.412   1_455  A
C1048      C1053   1.400       .  A
C1048      C1062   1.444       .  S
C1049      C1050   1.404       .  A
C1049      C1054   1.484       .  S
C1050      C1051   1.402       .  A
C1050      H1069   1.083       .  S
C1051      C1052   1.408       .  A
C1051      C1063   1.443       .  S
C1052      C1053   1.401   1_655  A
C1053      H1068   1.084       .  S
C1054      C1059   1.410       .  A
C1055      C1056   1.403       .  A
C1055      H1070   1.085       .  S
C1056      C1060   1.443       .  S
C1057      C1058   1.405       .  A
C1058      C1059   1.398       .  A
C1058      H1071   1.085       .  S
C1059      C1061   1.444       .  S
C1060      N1064   1.157       .  T
C1061      N1065   1.157       .  T
C1062      N1067   1.157       .  T
C1063      N1066   1.157       .  T
C1072      C1077   1.403       .  A
C1072      C1086   1.443       .  S
C1073      C1074   1.399       .  A
C1073      C1078   1.486       .  S
C1074      C1075   1.399       .  A
C1074      H1093   1.085       .  S
C1075      C1076   1.421       .  A
C1075      C1087   1.445       .  S
C1077      H1092   1.084       .  S
C1078      C1079   1.404       .  A
C1079      C1080   1.402       .  A
C1079      H1094   1.085       .  S
C1080      C1081   1.411       .  A
C1080      C1084   1.444       .  S
C1082      C1083   1.401       .  A
C1082      H1095   1.085       .  S
C1083      C1085   1.444       .  S
C1084      N1088   1.157       .  T
C1085      N1089   1.157       .  T
C1086      N1091   1.157       .  T
C1087      N1090   1.157       .  T
C1096      C1097   1.410       .  A
C1096      C1101   1.401       .  A
C1096      C1110   1.444       .  S
C1097      C1102   1.486       .  S
C1098      C1099   1.400       .  A
C1098      H1117   1.084       .  S
C1099      C1111   1.444       .  S
C1100      C1101   1.405       .  A
C1101      H1116   1.081       .  S
C1102      C1107   1.412       .  A
C1103      C1104   1.401       .  A
C1103      H1118   1.085       .  S
C1104      C1108   1.443       .  S
C1105      C1106   1.405       .  A
C1106      C1107   1.400       .  A
C1106      H1119   1.085       .  S
C1107      C1109   1.444       .  S
C1108      N1112   1.157       .  T
C1109      N1113   1.157       .  T
C1110      N1115   1.157       .  T
C1111      N1114   1.157       .  T
C1120      C1121   1.412       .  A
C1120      C1125   1.400       .  A
C1120      C1134   1.444       .  S
C1121      C1126   1.486       .  S
C1122      C1123   1.400       .  A
C1122      H1141   1.085       .  S
C1123      C1135   1.443       .  S
C1124      C1125   1.402       .  A
C1125      H1140   1.085       .  S
C1126      C1127   1.404       .  A
C1126      C1131   1.410   1_655  A
C1127      C1128   1.402   1_554  A
C1127      H1142   1.084       .  S
C1128      C1129   1.414       .  A
C1128      C1132   1.444       .  S
C1129      C1130   1.406   1_655  A
C1130      C1131   1.398   1_556  A
C1132      N1136   1.157       .  T
C1133      N1137   1.157       .  T
C1134      N1139   1.157       .  T
C1135      N1138   1.157       .  T
C1144      C1145   1.410       .  A
C1144      C1149   1.400       .  A
C1144      C1619   1.444       .  S
C1145      C1146   1.400       .  A
C1145      C1150   1.482       .  S
C1146      C1147   1.402       .  A
C1146      H1165   1.085       .  S
C1147      C1148   1.415       .  A
C1147      C1159   1.444       .  S
C1148      C1149   1.404       .  A
C1149      H1625   1.085       .  S
C1150      C1151   1.403       .  A
C1150      C1155   1.409       .  A
C1151      C1152   1.403       .  A
C1151      H1166   1.084       .  S
C1152      C1153   1.410       .  A
C1152      C1156   1.442       .  S
C1153      C1154   1.402       .  A
C1154      C1155   1.399       .  A
C1154      H1628   1.085       .  S
C1155      C1618   1.444       .  S
C1156      N1160   1.157       .  T
C1157      C1616   1.444       .  S
C1157      N1161   1.157       .  T
C1158      C1605   1.444   1_545  S
C1158      N1163   1.157       .  T
C1159      N1162   1.157       .  T
H1164      C1610   1.085   1_545  S
H1167      C1615   1.085       .  S
C1168      C1169   1.410       .  A
C1168      C1173   1.400       .  A
C1168      C1643   1.444       .  S
C1169      C1170   1.403       .  A
C1169      C1174   1.484       .  S
C1170      C1171   1.403       .  A
C1170      H1189   1.084       .  S
C1171      C1172   1.413       .  A
C1171      C1183   1.444       .  S
C1172      C1173   1.403       .  A
C1173      H1649   1.084       .  S
C1174      C1175   1.400       .  A
C1174      C1179   1.408       .  A
C1175      C1176   1.398       .  A
C1175      H1190   1.085       .  S
C1176      C1177   1.419       .  A
C1176      C1180   1.445       .  S
C1177      C1178   1.408       .  A
C1178      C1179   1.403       .  A
C1178      H1652   1.083       .  S
C1179      C1642   1.443       .  S
C1180      N1184   1.157       .  T
C1181      C1640   1.443       .  S
C1181      N1185   1.157       .  T
C1182      C1629   1.444       .  S
C1182      N1187   1.157       .  T
C1183      N1186   1.157       .  T
H1188      C1634   1.084       .  S
H1191      C1639   1.084       .  S
C1192      C1193   1.411       .  A
C1192      C1197   1.401       .  A
C1192      C1667   1.444       .  S
C1193      C1194   1.403       .  A
C1193      C1198   1.487       .  S
C1194      C1195   1.401       .  A
C1194      H1213   1.085       .  S
C1195      C1196   1.415       .  A
C1195      C1207   1.444       .  S
C1196      C1197   1.407       .  A
C1197      H1673   1.085       .  S
C1198      C1199   1.404       .  A
C1198      C1203   1.412       .  A
C1199      C1200   1.402       .  A
C1199      H1214   1.084       .  S
C1200      C1201   1.413       .  A
C1200      C1204   1.444       .  S
C1201      C1202   1.405       .  A
C1202      C1203   1.401       .  A
C1202      H1215   1.084       .  S
C1203      C1205   1.444       .  S
C1204      N1208   1.157       .  T
C1205      N1670   1.157       .  T
C1206      C1653   1.444   1_545  S
C1206      N1211   1.157       .  T
C1207      N1210   1.157       .  T
N1209      C1666   1.157       .  T
H1212      C1658   1.085   1_545  S
C1216      C1217   1.409       .  A
C1216      C1221   1.405       .  A
C1216      C1230   1.443       .  S
C1217      C1218   1.397       .  A
C1217      C1222   1.480       .  S
C1218      C1219   1.396       .  A
C1218      H1237   1.085       .  S
C1219      C1220   1.418       .  A
C1219      C1231   1.444       .  S
C1220      C1221   1.407       .  A
C1221      H1236   1.085       .  S
C1222      C1223   1.401       .  A
C1222      C1227   1.409       .  A
C1223      C1224   1.402       .  A
C1223      H1238   1.085       .  S
C1224      C1225   1.415       .  A
C1224      C1689   1.444       .  S
C1225      C1226   1.405       .  A
C1226      C1227   1.399       .  A
C1226      H1239   1.085       .  S
C1227      C1229   1.443       .  S
C1228      C1685   1.444   1_545  S
C1228      N1232   1.157       .  T
C1229      N1233   1.157       .  T
C1230      N1235   1.157       .  T
C1231      N1695   1.157       .  T
N1234      C1692   1.157       .  T
C1240      C1241   1.409       .  A
C1240      C1245   1.399       .  A
C1240      C1254   1.444       .  S
C1241      C1242   1.402       .  A
C1241      C1246   1.481       .  S
C1242      C1243   1.401       .  A
C1242      H1261   1.084       .  S
C1243      C1244   1.414       .  A
C1243      C1255   1.444       .  S
C1244      C1245   1.405       .  A
C1245      H1260   1.084       .  S
C1246      C1247   1.401       .  A
C1246      C1251   1.409       .  A
C1247      C1248   1.400   1_554  A
C1247      H1723   1.084       .  S
C1248      C1249   1.413       .  A
C1248      C1713   1.444       .  S
C1249      C1250   1.405       .  A
C1250      C1251   1.399   1_556  A
C1250      H1263   1.085       .  S
C1251      C1253   1.444       .  S
C1252      C1709   1.444   1_545  S
C1252      N1256   1.157       .  T
C1253      N1257   1.157       .  T
C1254      N1259   1.157       .  T
C1255      N1258   1.157       .  T
H1262      C1708   1.085   1_545  S
C1264      C1265   1.409       .  A
C1264      C1269   1.402       .  A
C1264      C1278   1.444       .  S
C1265      C1266   1.402       .  A
C1265      C1270   1.483       .  S
C1266      C1267   1.401       .  A
C1266      H1285   1.085       .  S
C1267      C1268   1.415       .  A
C1267      C1279   1.445       .  S
C1268      C1269   1.406       .  A
C1269      H1284   1.085       .  S
C1270      C1271   1.397       .  A
C1270      C1275   1.410       .  A
C1271      C1272   1.397       .  A
C1271      H1286   1.088       .  S
C1272      C1273   1.422       .  A
C1272      C1276   1.446       .  S
C1273      C1274   1.407       .  A
C1274      C1275   1.404       .  A
C1274      H1287   1.085       .  S
C1275      C1277   1.443       .  S
C1276      N1280   1.158       .  T
C1277      N1281   1.157       .  T
C1278      N1283   1.157       .  T
C1279      N1282   1.157       .  T
C1288      C1289   1.414       .  A
C1288      C1293   1.402       .  A
C1288      C1302   1.444       .  S
C1289      C1290   1.405       .  A
C1289      C1294   1.489       .  S
C1290      C1291   1.400       .  A
C1290      H1309   1.084       .  S
C1291      C1292   1.409       .  A
C1291      C1303   1.443       .  S
C1292      C1293   1.403       .  A
C1293      H1308   1.085       .  S
C1294      C1295   1.402       .  A
C1294      C1299   1.411       .  A
C1295      C1296   1.398       .  A
C1295      H1310   1.085       .  S
C1296      C1297   1.417       .  A
C1296      C1300   1.445       .  S
C1297      C1298   1.407       .  A
C1298      C1299   1.404       .  A
C1298      H1311   1.080       .  S
C1299      C1301   1.443       .  S
C1300      N1304   1.157       .  T
C1301      N1305   1.157       .  T
C1302      N1307   1.157       .  T
C1303      N1306   1.157       .  T
C1312      C1313   1.415       .  A
C1312      C1317   1.403       .  A
C1312      C1326   1.444       .  S
C1313      C1314   1.402       .  A
C1313      C1318   1.499       .  S
C1314      C1315   1.396       .  A
C1314      H1333   1.085       .  S
C1315      C1316   1.421       .  A
C1315      C1327   1.444       .  S
C1316      C1317   1.411       .  A
C1317      H1332   1.084       .  S
C1318      C1319   1.408       .  A
C1318      C1323   1.419       .  A
C1319      C1320   1.401       .  A
C1319      H1334   1.083       .  S
C1320      C1321   1.409       .  A
C1320      C1324   1.443       .  S
C1321      C1322   1.399       .  A
C1322      C1323   1.396       .  A
C1322      H1335   1.084       .  S
C1323      C1325   1.445       .  S
C1324      N1328   1.157       .  T
C1325      N1329   1.157       .  T
C1326      N1331   1.157       .  T
C1327      N1330   1.157       .  T
C1336      C1337   1.409       .  A
C1336      C1341   1.394       .  A
C1336      C1350   1.445       .  S
C1337      C1338   1.406       .  A
C1337      C1342   1.486       .  S
C1338      C1339   1.406       .  A
C1338      H1357   1.084       .  S
C1339      C1340   1.413       .  A
C1339      C1351   1.443       .  S
C1340      C1341   1.404       .  A
C1341      H1356   1.083       .  S
C1342      C1343   1.400       .  A
C1342      C1347   1.411       .  A
C1343      C1344   1.401       .  A
C1343      H1358   1.086       .  S
C1344      C1345   1.422       .  A
C1344      C1348   1.444       .  S
C1345      C1346   1.408       .  A
C1346      C1347   1.399       .  A
C1346      H1359   1.085       .  S
C1347      C1349   1.445       .  S
C1348      N1352   1.157       .  T
C1349      N1353   1.157       .  T
C1350      N1355   1.157       .  T
C1351      N1354   1.157       .  T
C1360      C1361   1.412       .  A
C1360      C1365   1.400   1_554  A
C1360      C1374   1.444       .  S
C1361      C1362   1.404       .  A
C1361      C1366   1.490       .  S
C1362      C1363   1.402   1_554  A
C1362      H1381   1.084       .  S
C1363      C1364   1.414       .  A
C1363      C1375   1.443       .  S
C1364      C1365   1.406       .  A
C1365      H1380   1.084       .  S
C1366      C1367   1.404       .  A
C1366      C1371   1.413       .  A
C1367      C1368   1.399       .  A
C1367      H1382   1.084       .  S
C1368      C1369   1.410       .  A
C1368      C1372   1.444       .  S
C1369      C1370   1.403       .  A
C1370      C1371   1.403       .  A
C1370      H1383   1.084       .  S
C1371      C1373   1.444       .  S
C1372      N1376   1.157       .  T
C1373      N1377   1.157       .  T
C1374      N1379   1.157       .  T
C1375      N1378   1.157       .  T
C1384      C1385   1.405       .  A
C1384      C1389   1.402       .  A
C1384      C1801   1.488       .  S
C1385      C1386   1.408       .  A
C1385      H1390   1.082       .  S
C1386      C1387   1.410       .  A
C1386      C1777   1.503       .  S
C1387      C1388   1.403       .  A
C1387      H1391   1.083       .  S
C1388      C1389   1.402       .  A
C1388      C1830   1.479       .  S
C1389      H1392   1.083       .  S
C1393      C1394   1.405       .  A
C1393      C1398   1.402       .  A
C1393      C1753   1.485       .  S
C1394      C1395   1.409       .  A
C1394      H1399   1.083       .  S
C1395      C1396   1.407       .  A
C1395      C1825   1.491       .  S
C1396      C1397   1.403       .  A
C1396      H1400   1.084       .  S
C1397      C1398   1.403       .  A
C1397      C1729   1.487       .  S
C1398      H1401   1.084       .  S
C1402      C1403   1.406       .  A
C1402      C1407   1.405       .  A
C1402      C1662   1.491       .  S
C1403      C1404   1.405       .  A
C1403      H1408   1.084       .  S
C1404      C1405   1.402       .  A
C1404      C1686   1.485       .  S
C1405      C1406   1.403       .  A
C1405      H1409   1.084       .  S
C1406      C1407   1.404       .  A
C1406      C1705   1.484       .  S
C1407      H1410   1.083       .  S
C1411      C1412   1.402       .  A
C1411      C1416   1.405       .  A
C1411      C1609   1.485       .  S
C1412      C1413   1.403       .  A
C1412      H1417   1.084       .  S
C1413      C1414   1.405       .  A
C1413      C1710   1.484       .  S
C1414      C1415   1.402       .  A
C1414      H1418   1.083       .  S
C1415      C1416   1.405       .  A
C1415      C1633   1.484       .  S
C1416      H1419   1.084       .  S
C1420      C1421   1.404       .  A
C1420      C1425   1.405       .  A
C1420      C1566   1.486       .  S
C1421      C1422   1.403       .  A
C1421      H1426   1.084       .  S
C1422      C1423   1.402       .  A
C1422      C1585   1.478       .  S
C1423      C1424   1.401       .  A
C1423      H1427   1.084       .  S
C1424      C1425   1.404       .  A
C1424      C1542   1.481       .  S
C1425      H1428   1.084       .  S
C1429      C1430   1.405       .  A
C1429      C1434   1.406       .  A
C1429      C1518   1.489       .  S
C1430      C1431   1.403       .  A
C1430      H1435   1.084       .  S
C1431      C1432   1.401       .  A
C1431      C1489   1.485       .  S
C1432      C1433   1.405       .  A
C1432      H1436   1.084       .  S
C1433      C1434   1.407       .  A
C1433      C1590   1.489       .  S
C1434      H1437   1.083       .  S
O1438     Mn1464   2.089       .  S
C1439      C1758   1.491       .  S
C1439      O1472   1.273       .  A
C1439      O1469   1.270       .  A
O1440     Mn1447   2.167       .  S
O1440     Mn1458   2.131       .  S
O1440     Mn1462   2.163       .  S
O1441     Mn1475   2.083       .  S
O1441      C1451   1.269       .  A
O1442     Mn1458   2.096       .  S
O1442      C1465   1.273       .  A
O1443     Mn1462   2.086       .  S
O1443      C1470   1.249       .  A
O1444     Mn1464   1.962       .  S
O1444      C1460   1.221       .  S
C1445      C1681   1.482       .  S
C1445      O1448   1.253       .  A
C1445      O1471   1.217       .  S
O1446     Mn1447   2.162       .  S
O1446     Mn1480   2.123       .  S
O1446     Mn1462   2.166       .  S
Mn1447     O1452   2.106       .  S
O1449     Mn1456   2.106       .  S
O1449      C1451   1.275       .  A
C1450      C1638   1.491       .  S
C1450      O1476   1.254       .  A
C1450      O1463   1.219       .  S
C1451      C1806   1.494       .  S
O1452      C1477   1.255       .  A
O1453     Mn1456   2.117       .  S
O1453     Mn1475   2.132       .  S
O1454     Mn1458   1.959       .  S
O1454     Mn1480   1.960       .  S
O1454      C1477   1.218       .  S
C1455      C1561   1.480       .  S
C1455      O1457   1.271       .  A
Mn1456     O1469   2.085       .  S
O1457     Mn1480   2.090       .  S
Mn1458     O1474   2.094       .  S
Mn1458     O1468   1.969       .  S
O1459     Mn1464   2.093       .  S
C1460      C1537   1.490       .  S
C1460      O1478   1.253       .  A
C1461      C1614   1.470       .  S
C1461      O1474   1.271       .  A
O1463     Mn1466   1.961       .  S
Mn1464     O1482   1.958       .  S
C1465      C1657   1.491       .  S
Mn1466     O1473   2.097       .  S
Mn1466     O1481   2.091       .  S
Mn1466     O1471   1.959       .  S
C1467      C1513   1.473       .  S
C1467      O1483   1.272       .  A
O1468     Mn1480   1.970       .  S
O1468      C1470   1.221       .  S
C1470      C1782   1.475       .  S
O1472     Mn1475   2.105       .  S
C1477      C1734   1.487       .  S
O1479      C1484   1.252       .  A
Mn1480     O1483   2.098       .  S
O1482      C1484   1.217       .  S
C1484      C1494   1.481       .  S
C1485      C1490   1.400       .  A
C1485      C1499   1.444       .  S
C1486      C1487   1.401       .  A
C1486      C1491   1.480       .  S
C1487      C1488   1.401       .  A
C1487      H1506   1.085       .  S
C1488      C1489   1.414       .  A
C1488      C1500   1.444       .  S
C1490      H1505   1.085       .  S
C1491      C1492   1.403   1_655  A
C1491      C1496   1.406       .  A
C1492      C1493   1.405   1_455  A
C1492      H1507   1.083       .  S
C1493      C1494   1.414       .  A
C1493      C1497   1.443   1_655  S
C1494      C1495   1.406       .  A
C1495      C1496   1.396       .  A
C1495      H1508   1.083       .  S
C1496      C1498   1.444       .  S
C1497      N1501   1.157       .  T
C1498      N1502   1.157       .  T
C1499      N1504   1.157       .  T
C1500      N1503   1.157       .  T
C1509      C1510   1.413   1_455  A
C1509      C1514   1.400       .  A
C1509      C1523   1.444       .  S
C1510      C1511   1.405       .  A
C1510      C1515   1.488       .  S
C1511      C1512   1.404       .  A
C1511      H1530   1.084       .  S
C1512      C1513   1.409       .  A
C1512      C1524   1.443       .  S
C1513      C1514   1.401   1_655  A
C1514      H1529   1.084       .  S
C1515      C1520   1.411       .  A
C1516      C1517   1.404       .  A
C1516      H1531   1.085       .  S
C1517      C1521   1.444       .  S
C1518      C1519   1.405       .  A
C1519      C1520   1.399       .  A
C1519      H1532   1.085       .  S
C1520      C1522   1.444       .  S
C1521      N1525   1.157       .  T
C1522      N1526   1.157       .  T
C1523      N1528   1.157       .  T
C1524      N1527   1.157       .  T
C1533      C1538   1.401       .  A
C1533      C1547   1.444       .  S
C1534      C1535   1.400       .  A
C1534      C1539   1.485       .  S
C1535      C1536   1.398       .  A
C1535      H1554   1.085       .  S
C1536      C1537   1.419       .  A
C1536      C1548   1.445       .  S
C1538      H1553   1.084       .  S
C1539      C1540   1.403       .  A
C1540      C1541   1.400       .  A
C1540      H1555   1.085       .  S
C1541      C1542   1.411       .  A
C1541      C1545   1.444       .  S
C1543      C1544   1.401       .  A
C1543      H1556   1.085       .  S
C1544      C1546   1.444       .  S
C1545      N1549   1.157       .  T
C1546      N1550   1.157       .  T
C1547      N1552   1.157       .  T
C1548      N1551   1.157       .  T
C1557      C1558   1.410       .  A
C1557      C1562   1.400       .  A
C1557      C1571   1.444       .  S
C1558      C1563   1.485       .  S
C1559      C1560   1.400       .  A
C1559      H1578   1.084       .  S
C1560      C1572   1.445       .  S
C1561      C1562   1.405       .  A
C1562      H1577   1.081       .  S
C1563      C1568   1.411       .  A
C1564      C1565   1.402       .  A
C1564      H1579   1.085       .  S
C1565      C1569   1.443       .  S
C1566      C1567   1.405       .  A
C1567      C1568   1.400       .  A
C1567      H1580   1.084       .  S
C1568      C1570   1.444       .  S
C1569      N1573   1.157       .  T
C1570      N1574   1.157       .  T
C1571      N1576   1.157       .  T
C1572      N1575   1.157       .  T
C1581      C1582   1.411       .  A
C1581      C1586   1.399       .  A
C1581      C1595   1.444       .  S
C1582      C1587   1.486       .  S
C1583      C1584   1.400       .  A
C1583      H1602   1.085       .  S
C1584      C1596   1.443       .  S
C1585      C1586   1.402       .  A
C1586      H1601   1.085       .  S
C1587      C1588   1.404       .  A
C1587      C1592   1.410   1_655  A
C1588      C1589   1.402   1_554  A
C1588      H1603   1.084       .  S
C1589      C1590   1.415       .  A
C1589      C1593   1.444       .  S
C1590      C1591   1.406   1_655  A
C1591      C1592   1.399   1_556  A
C1593      N1597   1.157       .  T
C1594      N1598   1.157       .  T
C1595      N1600   1.157       .  T
C1596      N1599   1.157       .  T
C1605      C1606   1.409       .  A
C1605      C1610   1.400       .  A
C1606      C1607   1.400       .  A
C1606      C1611   1.480       .  S
C1607      C1608   1.402       .  A
C1607      H1626   1.085       .  S
C1608      C1609   1.416       .  A
C1608      C1620   1.444       .  S
C1609      C1610   1.404       .  A
C1611      C1612   1.403       .  A
C1611      C1616   1.409       .  A
C1612      C1613   1.403       .  A
C1612      H1627   1.084       .  S
C1613      C1614   1.409       .  A
C1613      C1617   1.442       .  S
C1614      C1615   1.401       .  A
C1615      C1616   1.398       .  A
C1617      N1621   1.157       .  T
C1618      N1622   1.157       .  T
C1619      N1624   1.157       .  T
C1620      N1623   1.157       .  T
C1629      C1630   1.411   1_545  A
C1629      C1634   1.401       .  A
C1630      C1631   1.404       .  A
C1630      C1635   1.487       .  S
C1631      C1632   1.403       .  A
C1631      H1650   1.084       .  S
C1632      C1633   1.413       .  A
C1632      C1644   1.444       .  S
C1633      C1634   1.404   1_565  A
C1635      C1636   1.400       .  A
C1635      C1640   1.410       .  A
C1636      C1637   1.398       .  A
C1636      H1651   1.085       .  S
C1637      C1638   1.420       .  A
C1637      C1641   1.445       .  S
C1638      C1639   1.408       .  A
C1639      C1640   1.404       .  A
C1641      N1645   1.157       .  T
C1642      N1646   1.157       .  T
C1643      N1648   1.157       .  T
C1644      N1647   1.157       .  T
C1653      C1654   1.411       .  A
C1653      C1658   1.402       .  A
C1654      C1655   1.402       .  A
C1654      C1659   1.489       .  S
C1655      C1656   1.400       .  A
C1655      H1674   1.085       .  S
C1656      C1657   1.417       .  A
C1656      C1668   1.444       .  S
C1657      C1658   1.410       .  A
C1659      C1660   1.404       .  A
C1659      C1664   1.412       .  A
C1660      C1661   1.401       .  A
C1660      H1675   1.084       .  S
C1661      C1662   1.415       .  A
C1661      C1665   1.444       .  S
C1662      C1663   1.406       .  A
C1663      C1664   1.401       .  A
C1663      H1676   1.084   1_565  S
C1664      C1666   1.444   1_565  S
C1665      N1669   1.157       .  T
C1667      N1672   1.157       .  T
C1668      N1671   1.157       .  T
C1677      C1678   1.409       .  A
C1677      C1682   1.404       .  A
C1677      C1691   1.443       .  S
C1678      C1679   1.398       .  A
C1678      C1683   1.480       .  S
C1679      C1680   1.397       .  A
C1679      H1698   1.085   1_565  S
C1680      C1681   1.417       .  A
C1680      C1692   1.444   1_565  S
C1681      C1682   1.407       .  A
C1682      H1697   1.085       .  S
C1683      C1684   1.401       .  A
C1683      C1688   1.409       .  A
C1684      C1685   1.401       .  A
C1684      H1699   1.085   1_565  S
C1685      C1686   1.415       .  A
C1686      C1687   1.405       .  A
C1687      C1688   1.400       .  A
C1687      H1700   1.084       .  S
C1688      C1690   1.444       .  S
C1689      N1693   1.157       .  T
C1690      N1694   1.157       .  T
C1691      N1696   1.157       .  T
C1701      C1702   1.409       .  A
C1701      C1706   1.399       .  A
C1701      C1715   1.444       .  S
C1702      C1703   1.401       .  A
C1702      C1707   1.480       .  S
C1703      C1704   1.400       .  A
C1703      H1722   1.084   1_565  S
C1704      C1705   1.414       .  A
C1704      C1716   1.444   1_565  S
C1705      C1706   1.405       .  A
C1706      H1721   1.084       .  S
C1707      C1708   1.401       .  A
C1707      C1712   1.409       .  A
C1708      C1709   1.399   1_554  A
C1709      C1710   1.414       .  A
C1710      C1711   1.406       .  A
C1711      C1712   1.400   1_556  A
C1711      H1724   1.085       .  S
C1712      C1714   1.444       .  S
C1713      N1717   1.157       .  T
C1714      N1718   1.157       .  T
C1715      N1720   1.157       .  T
C1716      N1719   1.157       .  T
C1725      C1726   1.408       .  A
C1725      C1730   1.402       .  A
C1725      C1739   1.444       .  S
C1726      C1727   1.401       .  A
C1726      C1731   1.481       .  S
C1727      C1728   1.401       .  A
C1727      H1746   1.085       .  S
C1728      C1729   1.415       .  A
C1728      C1740   1.445       .  S
C1729      C1730   1.406       .  A
C1730      H1745   1.084       .  S
C1731      C1732   1.397       .  A
C1731      C1736   1.409       .  A
C1732      C1733   1.397       .  A
C1732      H1747   1.090       .  S
C1733      C1734   1.420       .  A
C1733      C1737   1.445       .  S
C1734      C1735   1.407       .  A
C1735      C1736   1.403       .  A
C1735      H1748   1.087       .  S
C1736      C1738   1.443       .  S
C1737      N1741   1.158       .  T
C1738      N1742   1.157       .  T
C1739      N1744   1.157       .  T
C1740      N1743   1.157       .  T
C1749      C1750   1.413       .  A
C1749      C1754   1.402       .  A
C1749      C1763   1.444       .  S
C1750      C1751   1.405       .  A
C1750      C1755   1.490       .  S
C1751      C1752   1.401       .  A
C1751      H1770   1.084       .  S
C1752      C1753   1.411       .  A
C1752      C1764   1.442       .  S
C1753      C1754   1.405       .  A
C1754      H1769   1.084       .  S
C1755      C1756   1.401       .  A
C1755      C1760   1.411       .  A
C1756      C1757   1.399       .  A
C1756      H1771   1.085       .  S
C1757      C1758   1.418       .  A
C1757      C1761   1.445       .  S
C1758      C1759   1.408       .  A
C1759      C1760   1.405       .  A
C1759      H1772   1.082       .  S
C1760      C1762   1.443       .  S
C1761      N1765   1.157       .  T
C1762      N1766   1.157       .  T
C1763      N1768   1.157       .  T
C1764      N1767   1.157       .  T
C1773      C1774   1.415       .  A
C1773      C1778   1.404       .  A
C1773      C1787   1.444       .  S
C1774      C1775   1.403       .  A
C1774      C1779   1.500       .  S
C1775      C1776   1.396       .  A
C1775      H1794   1.085       .  S
C1776      C1777   1.420       .  A
C1776      C1788   1.444       .  S
C1777      C1778   1.411       .  A
C1778      H1793   1.084       .  S
C1779      C1780   1.409       .  A
C1779      C1784   1.419       .  A
C1780      C1781   1.401       .  A
C1780      H1795   1.083       .  S
C1781      C1782   1.410       .  A
C1781      C1785   1.443       .  S
C1782      C1783   1.399       .  A
C1783      C1784   1.397       .  A
C1783      H1796   1.084       .  S
C1784      C1786   1.445       .  S
C1785      N1789   1.157       .  T
C1786      N1790   1.157       .  T
C1787      N1792   1.157       .  T
C1788      N1791   1.157       .  T
C1797      C1798   1.410       .  A
C1797      C1802   1.395       .  A
C1797      C1811   1.445       .  S
C1798      C1799   1.406       .  A
C1798      C1803   1.488       .  S
C1799      C1800   1.407       .  A
C1799      H1818   1.085       .  S
C1800      C1801   1.413       .  A
C1800      C1812   1.443       .  S
C1801      C1802   1.404       .  A
C1802      H1817   1.084       .  S
C1803      C1804   1.400       .  A
C1803      C1808   1.411       .  A
C1804      C1805   1.402       .  A
C1804      H1819   1.086       .  S
C1805      C1806   1.422       .  A
C1805      C1809   1.444       .  S
C1806      C1807   1.408       .  A
C1807      C1808   1.401       .  A
C1807      H1820   1.085       .  S
C1808      C1810   1.444       .  S
C1809      N1813   1.157       .  T
C1810      N1814   1.157       .  T
C1811      N1816   1.157       .  T
C1812      N1815   1.157       .  T
C1821      C1822   1.412       .  A
C1821      C1826   1.400   1_554  A
C1821      C1835   1.444       .  S
C1822      C1823   1.404       .  A
C1822      C1827   1.490       .  S
C1823      C1824   1.402   1_554  A
C1823      H1842   1.084       .  S
C1824      C1825   1.415       .  A
C1824      C1836   1.442       .  S
C1825      C1826   1.407       .  A
C1826      H1841   1.084       .  S
C1827      C1828   1.405       .  A
C1827      C1832   1.414       .  A
C1828      C1829   1.399       .  A
C1828      H1843   1.084       .  S
C1829      C1830   1.409       .  A
C1829      C1833   1.444       .  S
C1830      C1831   1.403       .  A
C1831      C1832   1.403       .  A
C1831      H1844   1.084       .  S
C1832      C1834   1.444       .  S
C1833      N1837   1.157       .  T
C1834      N1838   1.157       .  T
C1835      N1840   1.157       .  T
C1836      N1839   1.157       .  T
