geometry optimzed in LAMMPS
_audit_creation_date              2020-11-30 
_audit_creation_method            'lammps2cif' 
_symmetry_space_group_name_H-M    'P1' 
_symmetry_Int_Tables_number       1 
_symmetry_cell_setting            triclinic 
loop_ 
_symmetry_equiv_pos_as_xyz 
  x,y,z 
_cell_length_a                    32.32189109 
_cell_length_b                    32.32239435526217 
_cell_length_c                    35.12093538518924 
_cell_angle_alpha                 89.97838586250717 
_cell_angle_beta                  90.02165347616703 
_cell_angle_gamma                 120.08600334104129 
loop_ 
_atom_site_label 
_atom_site_type_symbol 
_atom_site_fract_x 
_atom_site_fract_y 
_atom_site_fract_z 
_atom_site_charge 
C1          C  0.21741136  0.20683019  0.15451532     0.06300
C2          C  0.25651023  0.24568131  0.17203573    -0.09800
C3          C  0.29259848  0.28182093  0.14994802     0.03800
C4          C  0.28962293  0.27906946  0.11019053    -0.08300
C5          C  0.25054383  0.24020090  0.09255100     0.06300
C6          C  0.21440150  0.20403818  0.11470701    -0.07800
H7          H  0.25878967  0.24785721  0.20285855     0.11900
H8          H  0.31752333  0.30707374  0.09305043     0.09400
H9          H  0.18413667  0.17401577  0.10107179     0.09300
C10         C  0.21654599  0.20769732  0.41454451     0.06300
C11         C  0.25539872  0.24679514  0.39702466    -0.09800
C12         C  0.29153754  0.28288366  0.41911285     0.03800
C13         C  0.28878409  0.27990897  0.45887025    -0.08300
C14         C  0.24991421  0.24083085  0.47650932     0.06300
C15         C  0.21375190  0.20468847  0.45435288    -0.07800
H16         H  0.25757588  0.24907427  0.36620187     0.11900
H17         H  0.31678768  0.30780973  0.47601071     0.09400
H18         H  0.18372828  0.17442479  0.46798771     0.09300
C19         C  0.24801712  0.47292410  0.15455703     0.06300
C20         C  0.20930034  0.47335525  0.17207085    -0.09800
C21         C  0.17312963  0.47320158  0.14998646     0.03800
C22         C  0.17572591  0.47267665  0.11021894    -0.08300
C23         C  0.21444646  0.47227293  0.09256855     0.06300
C24         C  0.25061820  0.47238684  0.11474072    -0.07800
H25         H  0.20727283  0.47372135  0.20289150     0.11900
H26         H  0.14773600  0.47253963  0.09307655     0.09400
H27         H  0.28054175  0.47203687  0.10110808     0.09300
C28         C  0.24746777  0.47166624  0.41447493     0.06300
C29         C  0.20854828  0.47170602  0.39694148    -0.09800
C30         C  0.17241600  0.47160916  0.41901385     0.03800
C31         C  0.17519452  0.47143588  0.45877784    -0.08300
C32         C  0.21408669  0.47138328  0.47645157     0.06300
C33         C  0.25025460  0.47148535  0.45429987    -0.07800
H34         H  0.20641630  0.47188922  0.36611897     0.11900
H35         H  0.14726812  0.47142321  0.47590382     0.09400
H36         H  0.28036599  0.47150801  0.46795281     0.09300
C37         C  0.48137914  0.23775768  0.15458632     0.06300
C38         C  0.48141832  0.19883813  0.17211922    -0.09800
C39         C  0.48132017  0.16270577  0.15004667     0.03800
C40         C  0.48114634  0.16548452  0.11028254    -0.08300
C41         C  0.48109451  0.20437673  0.09260903     0.06300
C42         C  0.48119784  0.24054458  0.11476120    -0.07800
H43         H  0.48160191  0.19670604  0.20294197     0.11900
H44         H  0.48113268  0.13755836  0.09315637     0.09400
H45         H  0.48122100  0.27065574  0.10110855     0.09300
C46         C  0.48264118  0.23831025  0.41450239     0.06300
C47         C  0.48210149  0.24090979  0.45431881    -0.09800
C48         C  0.48198631  0.20473791  0.47649100     0.03800
C49         C  0.48239071  0.16601830  0.45884026    -0.08300
C50         C  0.48291798  0.16342325  0.41907259     0.06300
C51         C  0.48307358  0.19959464  0.39698847    -0.07800
H52         H  0.48175051  0.27083232  0.46795157     0.11900
H53         H  0.48225220  0.13802809  0.47598250     0.09400
H54         H  0.48344136  0.19756820  0.36616772     0.09300
O55         O  0.02247352  0.36664027  0.32688504    -0.85000
C56         C  0.12092449  0.11111012  0.22934463     1.15100
O57         O  0.48247846  0.42290800  0.28453802    -1.32800
O58         O  0.12836686  0.07865078  0.32735374    -0.86500
O59         O  0.44230023  0.32685962  0.32736110    -0.87100
O60         O  0.43312681  0.42354321  0.36436133    -0.75900
O61         O  0.07696091  0.47266274  0.32044560    -0.98000
C62         C  0.48279244  0.05940608  0.35430231     1.25100
O63         O  0.43261742  0.47276746  0.28452247    -1.32900
Mn64       Mn  0.48253255  0.47283091  0.24348926     1.82100
O65         O  0.48272157  0.02225400  0.36436296    -0.75000
O66         O  0.08863856  0.11900298  0.32682522    -0.84400
C67         C  0.48224529  0.05914413  0.21474393     1.16200
C68         C  0.12082302  0.11121326  0.33971440     1.10900
O69         O  0.43325178  0.42341576  0.20469955    -0.76000
O70         O  0.03243054  0.02272008  0.28452982    -1.29700
O71         O  0.38799446  0.37814956  0.24861611    -0.95200
C72         C  0.34402522  0.47251869  0.33970479     1.09600
Mn73       Mn  0.03618169  0.09052573  0.28439189     1.48600
O74         O  0.33624058  0.43251940  0.32684192    -0.84400
Mn75       Mn  0.41833039  0.35503061  0.28466294     1.49600
O76         O  0.02240541  0.36692658  0.24172903    -0.88200
C77         C  0.06885577  0.47253659  0.35431566     1.22800
C78         C  0.48223094  0.33431539  0.22935605     1.14900
Mn79       Mn  0.48254156  0.47282327  0.32557096     1.81000
O80         O  0.48237183  0.06724915  0.24861402    -0.93400
Mn81       Mn  0.04651470  0.41913585  0.28442277     1.49300
C82         C  0.48242478  0.33439148  0.33974066     1.11400
Mn83       Mn  0.42884454  0.03680239  0.28463718     1.50500
C84         C  0.34409924  0.47271061  0.22932002     1.14300
O85         O  0.38786078  0.37828438  0.32044525    -0.99200
O86         O  0.08836178  0.11865426  0.24170525    -0.88900
C87         C  0.39590025  0.38646187  0.35431133     1.25600
O88         O  0.48266219  0.06740927  0.32042766    -0.99600
O89         O  0.12871433  0.07892630  0.24223395    -0.87000
O90         O  0.37634761  0.01275926  0.24217530    -0.86600
O91         O  0.44223099  0.32653064  0.24221912    -0.86600
Mn92       Mn  0.10023718  0.02647105  0.28466742     1.47900
O93         O  0.48243187  0.02213189  0.20468050    -0.75100
C94         C  0.39617179  0.38618822  0.21474996     1.18600
O95         O  0.03184355  0.47272401  0.36437922    -0.73800
O96         O  0.03196292  0.47301080  0.20469708    -0.73400
Mn97       Mn  0.36474028  0.40861895  0.28439829     1.51100
O98         O  0.37663548  0.01269268  0.32733122    -0.85800
O99         O  0.07711992  0.47295200  0.24863188    -0.93300
O100        O  0.33656803  0.43258723  0.24170014    -0.88300
C101        C  0.06911536  0.47308124  0.21475736     1.16400
C102        C  0.48300286  0.09261731  0.38153050    -0.10100
C103        C  0.48306619  0.12376253  0.40048955    -0.11600
C104        C  0.48260355  0.27497407  0.39119070    -0.10100
C105        C  0.48251625  0.30345667  0.36903491    -0.11600
C106        C  0.48157859  0.12309111  0.16861984    -0.10100
C107        C  0.48188607  0.09209316  0.18753442    -0.11600
C108        C  0.48199599  0.30324268  0.20005515    -0.10100
C109        C  0.48169296  0.27458872  0.17789010    -0.11600
C110        C  0.48146806  0.20705933  0.01738727    -0.10100
C111        C  0.48118631  0.20696828  0.05170802    -0.11600
C112        C  0.28429908  0.47197976  0.39117164    -0.10100
C113        C  0.31295314  0.47228324  0.36900634    -0.11600
C114        C  0.10180446  0.47217677  0.38152521    -0.10100
C115        C  0.13280176  0.47186842  0.40044033    -0.11600
C116        C  0.31316418  0.47280056  0.20002517    -0.10100
C117        C  0.28468123  0.47288669  0.17786883    -0.11600
C118        C  0.13346912  0.47335085  0.16856922    -0.10100
C119        C  0.10232499  0.47328939  0.18752875    -0.11600
C120        C  0.21676901  0.47175664  0.05167275    -0.10100
C121        C  0.21667822  0.47147546  0.01735223    -0.11600
C122        C  0.36261638  0.35355775  0.38155547    -0.10100
C123        C  0.33136061  0.32258319  0.40054171    -0.11600
C124        C  0.17999635  0.17086983  0.39124044    -0.10100
C125        C  0.15164692  0.14222779  0.36904827    -0.11600
C126        C  0.33229695  0.32164440  0.16851974    -0.10100
C127        C  0.36326963  0.35290172  0.18750619    -0.11600
C128        C  0.18058270  0.17028124  0.17781879    -0.10100
C129        C  0.15193944  0.14193284  0.20001068    -0.11600
C130        C  0.24754537  0.23803541  0.01737862    -0.10100
C131        C  0.24774753  0.23783354  0.05168177    -0.11600
C132        C  0.21741136  0.20683022  0.65451529     0.06300
C133        C  0.25651027  0.24568126  0.67203563    -0.09800
C134        C  0.29259845  0.28182097  0.64994798     0.03800
C135        C  0.28962300  0.27906942  0.61019049    -0.08300
C136        C  0.25054396  0.24020084  0.59255094     0.06300
C137        C  0.21440148  0.20403820  0.61470694    -0.07800
H138        H  0.25878982  0.24785711  0.70285860     0.11900
H139        H  0.31752348  0.30707373  0.59305042     0.09400
H140        H  0.18413667  0.17401593  0.60107174     0.09300
C141        C  0.21654603  0.20769750  0.91454448     0.06300
C142        C  0.25539884  0.24679533  0.89702469    -0.09800
C143        C  0.29153764  0.28288376  0.91911294     0.03800
C144        C  0.28878408  0.27990905  0.95887036    -0.08300
C145        C  0.24991421  0.24083084  0.97650937     0.06300
C146        C  0.21375199  0.20468848  0.95435285    -0.07800
H147        H  0.25757608  0.24907453  0.86620188     0.11900
H148        H  0.31678760  0.30780976  0.97601089     0.09400
H149        H  0.18372841  0.17442464  0.96798761     0.09300
C150        C  0.24801714  0.47292425  0.65455712     0.06300
C151        C  0.20930029  0.47335528  0.67207095    -0.09800
C152        C  0.17312957  0.47320154  0.64998651     0.03800
C153        C  0.17572585  0.47267662  0.61021899    -0.08300
C154        C  0.21444642  0.47227290  0.59256861     0.06300
C155        C  0.25061823  0.47238686  0.61474078    -0.07800
H156        H  0.20727275  0.47372129  0.70289149     0.11900
H157        H  0.14773604  0.47253958  0.59307662     0.09400
H158        H  0.28054163  0.47203682  0.60110823     0.09300
C159        C  0.24746779  0.47166627  0.91447503     0.06300
C160        C  0.20854829  0.47170599  0.89694161    -0.09800
C161        C  0.17241598  0.47160911  0.91901389     0.03800
C162        C  0.17519445  0.47143585  0.95877790    -0.08300
C163        C  0.21408666  0.47138325  0.97645161     0.06300
C164        C  0.25025453  0.47148532  0.95429994    -0.07800
H165        H  0.20641638  0.47188922  0.86611898     0.11900
H166        H  0.14726813  0.47142318  0.97590388     0.09400
H167        H  0.28036600  0.47150801  0.96795297     0.09300
C168        C  0.48137911  0.23775766  0.65458624     0.06300
C169        C  0.48141838  0.19883814  0.67211911    -0.09800
C170        C  0.48132017  0.16270576  0.65004661     0.03800
C171        C  0.48114627  0.16548447  0.61028247    -0.08300
C172        C  0.48109450  0.20437673  0.59260894     0.06300
C173        C  0.48119790  0.24054452  0.61476115    -0.07800
H174        H  0.48160202  0.19670610  0.70294198     0.11900
H175        H  0.48113258  0.13755831  0.59315624     0.09400
H176        H  0.48122119  0.27065597  0.60110844     0.09300
C177        C  0.48264133  0.23831039  0.91450244     0.06300
C178        C  0.48210159  0.24090995  0.95431890    -0.09800
C179        C  0.48198632  0.20473797  0.97649106     0.03800
C180        C  0.48239069  0.16601835  0.95884032    -0.08300
C181        C  0.48291801  0.16342333  0.91907263     0.06300
C182        C  0.48307360  0.19959472  0.89698852    -0.07800
H183        H  0.48175052  0.27083237  0.96795157     0.11900
H184        H  0.48225207  0.13802816  0.97598252     0.09400
H185        H  0.48344117  0.19756814  0.86616775     0.09300
O186        O  0.02247352  0.36664023  0.82688499    -0.85000
C187        C  0.12092436  0.11111013  0.72934456     1.15100
O188        O  0.48247840  0.42290797  0.78453805    -1.32800
O189        O  0.12836703  0.07865093  0.82735377    -0.86500
O190        O  0.44230033  0.32685984  0.82736121    -0.87100
O191        O  0.43312675  0.42354325  0.86436134    -0.75900
O192        O  0.07696099  0.47266275  0.82044563    -0.98000
C193        C  0.48279238  0.05940609  0.85430231     1.25100
O194        O  0.43261741  0.47276751  0.78452250    -1.32900
Mn195      Mn  0.48253251  0.47283088  0.74348930     1.82100
O196        O  0.48272145  0.02225396  0.86436292    -0.75000
O197        O  0.08863860  0.11900303  0.82682518    -0.84400
C198        C  0.48224542  0.05914418  0.71474397     1.16200
C199        C  0.12082308  0.11121335  0.83971441     1.10900
O200        O  0.43325184  0.42341568  0.70469951    -0.76000
O201        O  0.03243063  0.02272016  0.78452987    -1.29700
O202        O  0.38799451  0.37814963  0.74861612    -0.95200
C203        C  0.34402519  0.47251874  0.83970485     1.09600
Mn204      Mn  0.03618171  0.09052583  0.78439188     1.48600
O205        O  0.33624053  0.43251948  0.82684194    -0.84400
Mn206      Mn  0.41833041  0.35503061  0.78466298     1.49600
O207        O  0.02240546  0.36692660  0.74172897    -0.88200
C208        C  0.06885580  0.47253657  0.85431568     1.22800
C209        C  0.48223103  0.33431539  0.72935607     1.14900
Mn210      Mn  0.48254151  0.47282325  0.82557096     1.81000
O211        O  0.48237198  0.06724928  0.74861405    -0.93400
Mn212      Mn  0.04651478  0.41913587  0.78442276     1.49300
C213        C  0.48242485  0.33439155  0.83974069     1.11400
Mn214      Mn  0.42884467  0.03680254  0.78463725     1.50500
C215        C  0.34409919  0.47271060  0.72932012     1.14300
O216        O  0.38786080  0.37828445  0.82044525    -0.99200
O217        O  0.08836174  0.11865440  0.74170519    -0.88900
C218        C  0.39590022  0.38646191  0.85431134     1.25600
O219        O  0.48266229  0.06740942  0.82042768    -0.99600
O220        O  0.12871420  0.07892634  0.74223398    -0.87000
O221        O  0.37634770  0.01275942  0.74217540    -0.86600
O222        O  0.44223107  0.32653052  0.74221923    -0.86600
Mn223      Mn  0.10023728  0.02647109  0.78466747     1.47900
O224        O  0.48243179  0.02213181  0.70468058    -0.75100
C225        C  0.39617180  0.38618819  0.71474997     1.18600
O226        O  0.03184356  0.47272398  0.86437922    -0.73800
O227        O  0.03196299  0.47301106  0.70469715    -0.73400
Mn228      Mn  0.36474033  0.40861902  0.78439832     1.51100
O229        O  0.37663560  0.01269277  0.82733134    -0.85800
O230        O  0.07711999  0.47295210  0.74863191    -0.93300
O231        O  0.33656809  0.43258725  0.74170020    -0.88300
C232        C  0.06911539  0.47308140  0.71475740     1.16400
C233        C  0.48300272  0.09261725  0.88153053    -0.10100
C234        C  0.48306610  0.12376251  0.90048960    -0.11600
C235        C  0.48260350  0.27497411  0.89119075    -0.10100
C236        C  0.48251622  0.30345673  0.86903496    -0.11600
C237        C  0.48157857  0.12309108  0.66861981    -0.10100
C238        C  0.48188618  0.09209320  0.68753440    -0.11600
C239        C  0.48199607  0.30324270  0.70005511    -0.10100
C240        C  0.48169291  0.27458869  0.67789002    -0.11600
C241        C  0.48146815  0.20705941  0.51738718    -0.10100
C242        C  0.48118642  0.20696837  0.55170793    -0.11600
C243        C  0.28429916  0.47197994  0.89117174    -0.10100
C244        C  0.31295313  0.47228336  0.86900638    -0.11600
C245        C  0.10180447  0.47217673  0.88152523    -0.10100
C246        C  0.13280180  0.47186839  0.90044034    -0.11600
C247        C  0.31316407  0.47280048  0.70002531    -0.10100
C248        C  0.28468117  0.47288671  0.67786896    -0.11600
C249        C  0.13346902  0.47335079  0.66856926    -0.10100
C250        C  0.10232491  0.47328942  0.68752875    -0.11600
C251        C  0.21676894  0.47175659  0.55167277    -0.10100
C252        C  0.21667819  0.47147544  0.51735222    -0.11600
C253        C  0.36261632  0.35355780  0.88155544    -0.10100
C254        C  0.33136072  0.32258325  0.90054182    -0.11600
C255        C  0.17999633  0.17087006  0.89124040    -0.10100
C256        C  0.15164683  0.14222790  0.86904833    -0.11600
C257        C  0.33229688  0.32164447  0.66851971    -0.10100
C258        C  0.36326956  0.35290173  0.68750622    -0.11600
C259        C  0.18058265  0.17028126  0.67781875    -0.10100
C260        C  0.15193934  0.14193276  0.70001057    -0.11600
C261        C  0.24754543  0.23803546  0.51737855    -0.10100
C262        C  0.24774766  0.23783351  0.55168169    -0.11600
C263        C  0.21741131  0.70683016  0.15451532     0.06300
C264        C  0.25651018  0.74568128  0.17203572    -0.09800
C265        C  0.29259842  0.78182092  0.14994801     0.03800
C266        C  0.28962296  0.77906937  0.11019052    -0.08300
C267        C  0.25054380  0.74020083  0.09255100     0.06300
C268        C  0.21440144  0.70403815  0.11470701    -0.07800
H269        H  0.25878966  0.74785716  0.20285853     0.11900
H270        H  0.31752340  0.80707355  0.09305044     0.09400
H271        H  0.18413660  0.67401577  0.10107180     0.09300
C272        C  0.21654599  0.70769749  0.41454446     0.06300
C273        C  0.25539884  0.74679525  0.39702465    -0.09800
C274        C  0.29153765  0.78288370  0.41911287     0.03800
C275        C  0.28878412  0.77990901  0.45887029    -0.08300
C276        C  0.24991418  0.74083086  0.47650932     0.06300
C277        C  0.21375190  0.70468862  0.45435281    -0.07800
H278        H  0.25757607  0.74907438  0.36620185     0.11900
H279        H  0.31678768  0.80780972  0.47601079     0.09400
H280        H  0.18372812  0.67442483  0.46798765     0.09300
C281        C  0.24801715  0.97292427  0.15455704     0.06300
C282        C  0.20930038  0.97335545  0.17207085    -0.09800
C283        C  0.17312960  0.97320163  0.14998646     0.03800
C284        C  0.17572585  0.97267664  0.11021895    -0.08300
C285        C  0.21444645  0.97227303  0.09256855     0.06300
C286        C  0.25061816  0.97238688  0.11474072    -0.07800
H287        H  0.20727290  0.97372160  0.20289150     0.11900
H288        H  0.14773588  0.97253951  0.09307655     0.09400
H289        H  0.28054161  0.97203671  0.10110809     0.09300
C290        C  0.24746785  0.97166636  0.41447495     0.06300
C291        C  0.20854837  0.97170613  0.39694147    -0.09800
C292        C  0.17241608  0.97160927  0.41901381     0.03800
C293        C  0.17519459  0.97143604  0.45877781    -0.08300
C294        C  0.21408670  0.97138332  0.47645157     0.06300
C295        C  0.25025462  0.97148546  0.45429988    -0.07800
H296        H  0.20641650  0.97188943  0.36611895     0.11900
H297        H  0.14726826  0.97142349  0.47590378     0.09400
H298        H  0.28036611  0.97150819  0.46795290     0.09300
C299        C  0.48137910  0.73775765  0.15458632     0.06300
C300        C  0.48141842  0.69883816  0.17211922    -0.09800
C301        C  0.48132021  0.66270579  0.15004666     0.03800
C302        C  0.48114630  0.66548449  0.11028254    -0.08300
C303        C  0.48109441  0.70437668  0.09260903     0.06300
C304        C  0.48119776  0.74054448  0.11476122    -0.07800
H305        H  0.48160208  0.69670612  0.20294197     0.11900
H306        H  0.48113262  0.63755832  0.09315634     0.09400
H307        H  0.48122090  0.77065573  0.10110852     0.09300
C308        C  0.48264120  0.73831030  0.41450239     0.06300
C309        C  0.48210156  0.74090993  0.45431882    -0.09800
C310        C  0.48198634  0.70473800  0.47649100     0.03800
C311        C  0.48239072  0.66601836  0.45884030    -0.08300
C312        C  0.48291803  0.66342333  0.41907262     0.06300
C313        C  0.48307357  0.69959467  0.39698849    -0.07800
H314        H  0.48175055  0.77083240  0.46795150     0.11900
H315        H  0.48225211  0.63802818  0.47598249     0.09400
H316        H  0.48344121  0.69756813  0.36616775     0.09300
O317        O  0.02247353  0.86664028  0.32688502    -0.85000
C318        C  0.12092443  0.61111013  0.22934462     1.15100
O319        O  0.48247841  0.92290799  0.28453802    -1.32800
O320        O  0.12836702  0.57865091  0.32735369    -0.86500
O321        O  0.44230037  0.82685978  0.32736108    -0.87100
O322        O  0.43312677  0.92354320  0.36436131    -0.75900
O323        O  0.07696087  0.97266274  0.32044561    -0.98000
C324        C  0.48279242  0.55940609  0.35430230     1.25100
O325        O  0.43261739  0.97276744  0.28452246    -1.32900
Mn326      Mn  0.48253256  0.97283090  0.24348925     1.82100
O327        O  0.48272151  0.52225399  0.36436297    -0.75000
O328        O  0.08863854  0.61900293  0.32682527    -0.84400
C329        C  0.48224544  0.55914419  0.21474393     1.16200
C330        C  0.12082306  0.61121329  0.33971443     1.10900
O331        O  0.43325186  0.92341562  0.20469955    -0.76000
O332        O  0.03243058  0.52272014  0.28452982    -1.29700
O333        O  0.38799440  0.87814956  0.24861612    -0.95200
C334        C  0.34402516  0.97251865  0.33970480     1.09600
Mn335      Mn  0.03618172  0.59052580  0.28439189     1.48600
O336        O  0.33624051  0.93251939  0.32684190    -0.84400
Mn337      Mn  0.41833035  0.85503062  0.28466294     1.49600
O338        O  0.02240541  0.86692658  0.24172903    -0.88200
C339        C  0.06885570  0.97253654  0.35431567     1.22800
C340        C  0.48223091  0.83431541  0.22935604     1.14900
Mn341      Mn  0.48254150  0.97282323  0.32557095     1.81000
O342        O  0.48237202  0.56724919  0.24861402    -0.93400
Mn343      Mn  0.04651468  0.91913588  0.28442276     1.49300
C344        C  0.48242489  0.83439152  0.33974063     1.11400
Mn345      Mn  0.42884465  0.53680247  0.28463716     1.50500
C346        C  0.34409919  0.97271049  0.22931999     1.14300
O347        O  0.38786069  0.87828435  0.32044527    -0.99200
O348        O  0.08836184  0.61865442  0.24170529    -0.88900
C349        C  0.39590019  0.88646188  0.35431133     1.25600
O350        O  0.48266227  0.56740932  0.32042766    -0.99600
O351        O  0.12871417  0.57892625  0.24223392    -0.87000
O352        O  0.37634773  0.51275939  0.24217528    -0.86600
O353        O  0.44223097  0.82653074  0.24221908    -0.86600
Mn354      Mn  0.10023719  0.52647105  0.28466741     1.47900
O355        O  0.48243184  0.52213187  0.20468046    -0.75100
C356        C  0.39617177  0.88618817  0.21474996     1.18600
O357        O  0.03184348  0.97272393  0.36437923    -0.73800
O358        O  0.03196297  0.97301101  0.20469707    -0.73400
Mn359      Mn  0.36474026  0.90861895  0.28439828     1.51100
O360        O  0.37663553  0.51269274  0.32733118    -0.85800
O361        O  0.07711992  0.97295208  0.24863186    -0.93300
O362        O  0.33656805  0.93258713  0.24170009    -0.88300
C363        C  0.06911537  0.97308136  0.21475735     1.16400
C364        C  0.48300285  0.59261734  0.38153048    -0.10100
C365        C  0.48306618  0.62376254  0.40048957    -0.11600
C366        C  0.48260346  0.77497404  0.39119069    -0.10100
C367        C  0.48251621  0.80345665  0.36903488    -0.11600
C368        C  0.48157856  0.62309111  0.16861986    -0.10100
C369        C  0.48188613  0.59209323  0.18753445    -0.11600
C370        C  0.48199589  0.80324262  0.20005517    -0.10100
C371        C  0.48169285  0.77458865  0.17789012    -0.11600
C372        C  0.48146807  0.70705942  0.01738726    -0.10100
C373        C  0.48118626  0.70696828  0.05170802    -0.11600
C374        C  0.28429915  0.97197990  0.39117166    -0.10100
C375        C  0.31295312  0.97228326  0.36900633    -0.11600
C376        C  0.10180445  0.97217677  0.38152522    -0.10100
C377        C  0.13280185  0.97186857  0.40044030    -0.11600
C378        C  0.31316408  0.97280042  0.20002518    -0.10100
C379        C  0.28468117  0.97288667  0.17786884    -0.11600
C380        C  0.13346912  0.97335096  0.16856922    -0.10100
C381        C  0.10232497  0.97328946  0.18752875    -0.11600
C382        C  0.21676895  0.97175661  0.05167275    -0.10100
C383        C  0.21667821  0.97147538  0.01735223    -0.11600
C384        C  0.36261639  0.85355780  0.38155549    -0.10100
C385        C  0.33136074  0.82258319  0.40054177    -0.11600
C386        C  0.17999637  0.67087003  0.39124040    -0.10100
C387        C  0.15164690  0.64222786  0.36904831    -0.11600
C388        C  0.33229689  0.82164440  0.16851974    -0.10100
C389        C  0.36326960  0.85290170  0.18750620    -0.11600
C390        C  0.18058264  0.67028118  0.17781878    -0.10100
C391        C  0.15193938  0.64193277  0.20001065    -0.11600
C392        C  0.24754538  0.73803542  0.01737862    -0.10100
C393        C  0.24774746  0.73783348  0.05168177    -0.11600
C394        C  0.21741131  0.70683024  0.65451531     0.06300
C395        C  0.25651028  0.74568125  0.67203563    -0.09800
C396        C  0.29259855  0.78182086  0.64994797     0.03800
C397        C  0.28962297  0.77906931  0.61019049    -0.08300
C398        C  0.25054388  0.74020079  0.59255094     0.06300
C399        C  0.21440141  0.70403816  0.61470696    -0.07800
H400        H  0.25878977  0.74785714  0.70285860     0.11900
H401        H  0.31752348  0.80707365  0.59305037     0.09400
H402        H  0.18413658  0.67401588  0.60107178     0.09300
C403        C  0.21654598  0.70769752  0.91454450     0.06300
C404        C  0.25539881  0.74679529  0.89702469    -0.09800
C405        C  0.29153761  0.78288376  0.91911292     0.03800
C406        C  0.28878411  0.77990908  0.95887034    -0.08300
C407        C  0.24991425  0.74083087  0.97650938     0.06300
C408        C  0.21375200  0.70468858  0.95435286    -0.07800
H409        H  0.25757603  0.74907438  0.86620186     0.11900
H410        H  0.31678768  0.80780985  0.97601084     0.09400
H411        H  0.18372832  0.67442474  0.96798770     0.09300
C412        C  0.24801715  0.97292423  0.65455713     0.06300
C413        C  0.20930035  0.97335541  0.67207096    -0.09800
C414        C  0.17312958  0.97320159  0.64998651     0.03800
C415        C  0.17572585  0.97267661  0.61021898    -0.08300
C416        C  0.21444649  0.97227299  0.59256862     0.06300
C417        C  0.25061819  0.97238685  0.61474081    -0.07800
H418        H  0.20727286  0.97372157  0.70289149     0.11900
H419        H  0.14773603  0.97253947  0.59307660     0.09400
H420        H  0.28054164  0.97203667  0.60110821     0.09300
C421        C  0.24746782  0.97166632  0.91447502     0.06300
C422        C  0.20854834  0.97170609  0.89694160    -0.09800
C423        C  0.17241608  0.97160923  0.91901392     0.03800
C424        C  0.17519462  0.97143600  0.95877790    -0.08300
C425        C  0.21408673  0.97138329  0.97645161     0.06300
C426        C  0.25025463  0.97148542  0.95429993    -0.07800
H427        H  0.20641639  0.97188940  0.86611898     0.11900
H428        H  0.14726830  0.97142347  0.97590396     0.09400
H429        H  0.28036615  0.97150816  0.96795293     0.09300
C430        C  0.48137901  0.73775763  0.65458625     0.06300
C431        C  0.48141835  0.69883815  0.67211911    -0.09800
C432        C  0.48132035  0.66270588  0.65004660     0.03800
C433        C  0.48114650  0.66548461  0.61028247    -0.08300
C434        C  0.48109449  0.70437671  0.59260893     0.06300
C435        C  0.48119779  0.74054446  0.61476115    -0.07800
H436        H  0.48160191  0.69670600  0.70294198     0.11900
H437        H  0.48113293  0.63755843  0.59315624     0.09400
H438        H  0.48122102  0.77065588  0.60110844     0.09300
C439        C  0.48264122  0.73831032  0.91450242     0.06300
C440        C  0.48210149  0.74090990  0.95431887    -0.09800
C441        C  0.48198625  0.70473796  0.97649106     0.03800
C442        C  0.48239060  0.66601830  0.95884034    -0.08300
C443        C  0.48291796  0.66342328  0.91907265     0.06300
C444        C  0.48307350  0.69959464  0.89698852    -0.07800
H445        H  0.48175044  0.77083233  0.96795153     0.11900
H446        H  0.48225202  0.63802814  0.97598257     0.09400
H447        H  0.48344110  0.69756806  0.86616775     0.09300
O448        O  0.02247359  0.86664022  0.82688498    -0.85000
C449        C  0.12092429  0.61111007  0.72934455     1.15100
O450        O  0.48247842  0.92290803  0.78453805    -1.32800
O451        O  0.12836699  0.57865084  0.82735375    -0.86500
O452        O  0.44230027  0.82685983  0.82736121    -0.87100
O453        O  0.43312675  0.92354323  0.86436139    -0.75900
O454        O  0.07696110  0.97266273  0.82044562    -0.98000
C455        C  0.48279237  0.55940606  0.85430230     1.25100
O456        O  0.43261743  0.97276752  0.78452249    -1.32900
Mn457      Mn  0.48253254  0.97283091  0.74348931     1.82100
O458        O  0.48272160  0.52225402  0.86436293    -0.75000
O459        O  0.08863862  0.61900297  0.82682522    -0.84400
C460        C  0.48224542  0.55914424  0.71474398     1.16200
C461        C  0.12082310  0.61121328  0.83971440     1.10900
O462        O  0.43325184  0.92341569  0.70469953    -0.76000
O463        O  0.03243062  0.52272015  0.78452986    -1.29700
O464        O  0.38799449  0.87814963  0.74861612    -0.95200
C465        C  0.34402516  0.97251871  0.83970483     1.09600
Mn466      Mn  0.03618173  0.59052581  0.78439190     1.48600
O467        O  0.33624052  0.93251945  0.82684192    -0.84400
Mn468      Mn  0.41833045  0.85503069  0.78466298     1.49600
O469        O  0.02240546  0.86692670  0.74172895    -0.88200
C470        C  0.06885589  0.97253656  0.85431566     1.22800
C471        C  0.48223104  0.83431552  0.72935604     1.14900
Mn472      Mn  0.48254147  0.97282325  0.82557097     1.81000
O473        O  0.48237199  0.56724933  0.74861405    -0.93400
Mn474      Mn  0.04651477  0.91913587  0.78442276     1.49300
C475        C  0.48242479  0.83439154  0.83974070     1.11400
Mn476      Mn  0.42884464  0.53680252  0.78463723     1.50500
C477        C  0.34409928  0.97271064  0.72932012     1.14300
O478        O  0.38786091  0.87828453  0.82044525    -0.99200
O479        O  0.08836168  0.61865435  0.74170519    -0.88900
C480        C  0.39590024  0.88646190  0.85431135     1.25600
O481        O  0.48266227  0.56740934  0.82042765    -0.99600
O482        O  0.12871414  0.57892629  0.74223397    -0.87000
O483        O  0.37634762  0.51275939  0.74217542    -0.86600
O484        O  0.44223110  0.82653068  0.74221922    -0.86600
Mn485      Mn  0.10023723  0.52647107  0.78466747     1.47900
O486        O  0.48243173  0.52213184  0.70468059    -0.75100
C487        C  0.39617177  0.88618822  0.71474996     1.18600
O488        O  0.03184361  0.97272389  0.86437919    -0.73800
O489        O  0.03196291  0.97301098  0.70469716    -0.73400
Mn490      Mn  0.36474038  0.90861906  0.78439833     1.51100
O491        O  0.37663558  0.51269277  0.82733131    -0.85800
O492        O  0.07711994  0.97295209  0.74863191    -0.93300
O493        O  0.33656817  0.93258728  0.74170022    -0.88300
C494        C  0.06911532  0.97308134  0.71475741     1.16400
C495        C  0.48300281  0.59261728  0.88153051    -0.10100
C496        C  0.48306623  0.62376254  0.90048961    -0.11600
C497        C  0.48260344  0.77497409  0.89119075    -0.10100
C498        C  0.48251618  0.80345677  0.86903501    -0.11600
C499        C  0.48157869  0.62309120  0.66861983    -0.10100
C500        C  0.48188622  0.59209329  0.68753442    -0.11600
C501        C  0.48199607  0.80324280  0.70005509    -0.10100
C502        C  0.48169284  0.77458869  0.67789004    -0.11600
C503        C  0.48146807  0.70705942  0.51738718    -0.10100
C504        C  0.48118631  0.70696830  0.55170793    -0.11600
C505        C  0.28429909  0.97197987  0.89117171    -0.10100
C506        C  0.31295305  0.97228330  0.86900635    -0.11600
C507        C  0.10180468  0.97217695  0.88152522    -0.10100
C508        C  0.13280196  0.97186862  0.90044039    -0.11600
C509        C  0.31316412  0.97280048  0.70002530    -0.10100
C510        C  0.28468118  0.97288664  0.67786897    -0.11600
C511        C  0.13346904  0.97335092  0.66856924    -0.10100
C512        C  0.10232487  0.97328942  0.68752874    -0.11600
C513        C  0.21676893  0.97175657  0.55167277    -0.10100
C514        C  0.21667809  0.97147536  0.51735223    -0.11600
C515        C  0.36261628  0.85355773  0.88155540    -0.10100
C516        C  0.33136066  0.82258321  0.90054177    -0.11600
C517        C  0.17999632  0.67086999  0.89124043    -0.10100
C518        C  0.15164691  0.64222782  0.86904831    -0.11600
C519        C  0.33229698  0.82164439  0.66851968    -0.10100
C520        C  0.36326955  0.85290177  0.68750619    -0.11600
C521        C  0.18058258  0.67028133  0.67781879    -0.10100
C522        C  0.15193927  0.64193275  0.70001058    -0.11600
C523        C  0.24754534  0.73803540  0.51737855    -0.10100
C524        C  0.24774756  0.73783343  0.55168170    -0.11600
C525        C  0.71741129  0.20683024  0.15451532     0.06300
C526        C  0.75651027  0.24568126  0.17203572    -0.09800
C527        C  0.79259857  0.28182086  0.14994801     0.03800
C528        C  0.78962302  0.27906940  0.11019053    -0.08300
C529        C  0.75054390  0.24020087  0.09255100     0.06300
C530        C  0.71440145  0.20403825  0.11470701    -0.07800
H531        H  0.75878975  0.24785713  0.20285853     0.11900
H532        H  0.81752344  0.30707367  0.09305044     0.09400
H533        H  0.68413657  0.17401593  0.10107178     0.09300
C534        C  0.71654593  0.20769743  0.41454451     0.06300
C535        C  0.75539875  0.24679517  0.39702466    -0.09800
C536        C  0.79153753  0.28288371  0.41911285     0.03800
C537        C  0.78878405  0.27990906  0.45887025    -0.08300
C538        C  0.74991429  0.24083083  0.47650932     0.06300
C539        C  0.71375196  0.20468847  0.45435288    -0.07800
H540        H  0.75757600  0.24907421  0.36620186     0.11900
H541        H  0.81678760  0.30780988  0.47601072     0.09400
H542        H  0.68372841  0.17442473  0.46798771     0.09300
C543        C  0.74801710  0.47292410  0.15455704     0.06300
C544        C  0.70930030  0.47335525  0.17207085    -0.09800
C545        C  0.67312960  0.47320158  0.14998645     0.03800
C546        C  0.67572589  0.47267665  0.11021894    -0.08300
C547        C  0.71444644  0.47227293  0.09256855     0.06300
C548        C  0.75061818  0.47238684  0.11474072    -0.07800
H549        H  0.70727279  0.47372135  0.20289149     0.11900
H550        H  0.64773603  0.47253963  0.09307653     0.09400
H551        H  0.78054173  0.47203687  0.10110809     0.09300
C552        C  0.74746780  0.47166631  0.41447493     0.06300
C553        C  0.70854830  0.47170602  0.39694148    -0.09800
C554        C  0.67241605  0.47160915  0.41901386     0.03800
C555        C  0.67519460  0.47143588  0.45877783    -0.08300
C556        C  0.71408674  0.47138327  0.47645158     0.06300
C557        C  0.75025460  0.47148536  0.45429985    -0.07800
H558        H  0.70641631  0.47188925  0.36611895     0.11900
H559        H  0.64726813  0.47142321  0.47590389     0.09400
H560        H  0.78036611  0.47150804  0.46795282     0.09300
C561        C  0.98137907  0.23775765  0.15458630     0.06300
C562        C  0.98141836  0.19883814  0.17211922    -0.09800
C563        C  0.98132025  0.16270580  0.15004668     0.03800
C564        C  0.98114648  0.16548455  0.11028255    -0.08300
C565        C  0.98109467  0.20437677  0.09260903     0.06300
C566        C  0.98119792  0.24054453  0.11476120    -0.07800
H567        H  0.98160192  0.19670604  0.20294196     0.11900
H568        H  0.98113280  0.13755837  0.09315640     0.09400
H569        H  0.98122108  0.27065582  0.10110847     0.09300
C570        C  0.98264114  0.23831025  0.41450239     0.06300
C571        C  0.98210141  0.24090980  0.45431882    -0.09800
C572        C  0.98198619  0.20473787  0.47649100     0.03800
C573        C  0.98239060  0.16601828  0.45884026    -0.08300
C574        C  0.98291801  0.16342329  0.41907260     0.06300
C575        C  0.98307352  0.19959464  0.39698847    -0.07800
H576        H  0.98175044  0.27083229  0.46795155     0.11900
H577        H  0.98225206  0.13802805  0.47598251     0.09400
H578        H  0.98344119  0.19756810  0.36616772     0.09300
O579        O  0.52247349  0.36664026  0.32688505    -0.85000
C580        C  0.62092433  0.11111012  0.22934462     1.15100
O581        O  0.98247839  0.42290799  0.28453802    -1.32800
O582        O  0.62836694  0.07865082  0.32735371    -0.86500
O583        O  0.94230028  0.32685964  0.32736109    -0.87100
O584        O  0.93312672  0.42354326  0.36436135    -0.75900
O585        O  0.57696105  0.47266274  0.32044559    -0.98000
C586        C  0.98279235  0.05940607  0.35430230     1.25100
O587        O  0.93261740  0.47276749  0.28452246    -1.32900
Mn588      Mn  0.98253255  0.47283091  0.24348925     1.82100
O589        O  0.98272161  0.02225404  0.36436294    -0.75000
O590        O  0.58863854  0.11900293  0.32682524    -0.84400
C591        C  0.98224538  0.05914416  0.21474393     1.16200
C592        C  0.62082307  0.11121326  0.33971439     1.10900
O593        O  0.93325181  0.42341573  0.20469953    -0.76000
O594        O  0.53243057  0.02272010  0.28452983    -1.29700
O595        O  0.88799449  0.37814960  0.24861611    -0.95200
C596        C  0.84402514  0.47251868  0.33970478     1.09600
Mn597      Mn  0.53618162  0.09052572  0.28439189     1.48600
O598        O  0.83624046  0.43251937  0.32684189    -0.84400
Mn599      Mn  0.91833040  0.35503059  0.28466293     1.49600
O600        O  0.52240538  0.36692653  0.24172903    -0.88200
C601        C  0.56885590  0.47253660  0.35431565     1.22800
C602        C  0.98223097  0.33431539  0.22935606     1.14900
Mn603      Mn  0.98254150  0.47282328  0.32557096     1.81000
O604        O  0.98237194  0.06724917  0.24861402    -0.93400
Mn605      Mn  0.54651473  0.41913583  0.28442276     1.49300
C606        C  0.98242481  0.33439148  0.33974065     1.11400
Mn607      Mn  0.92884458  0.03680240  0.28463717     1.50500
C608        C  0.84409930  0.47271060  0.22932001     1.14300
O609        O  0.88786082  0.37828437  0.32044526    -0.99200
O610        O  0.58836162  0.11865426  0.24170525    -0.88900
C611        C  0.89590025  0.38646186  0.35431133     1.25600
O612        O  0.98266220  0.06740929  0.32042765    -0.99600
O613        O  0.62871420  0.07892632  0.24223395    -0.87000
O614        O  0.87634759  0.01275926  0.24217531    -0.86600
O615        O  0.94223100  0.32653060  0.24221913    -0.86600
Mn616      Mn  0.60023721  0.02647107  0.28466741     1.47900
O617        O  0.98243174  0.02213182  0.20468048    -0.75100
C618        C  0.89617178  0.38618824  0.21474996     1.18600
O619        O  0.53184368  0.47272402  0.36437922    -0.73800
O620        O  0.53196288  0.47301080  0.20469704    -0.73400
Mn621      Mn  0.86474031  0.40861895  0.28439829     1.51100
O622        O  0.87663552  0.01269268  0.32733122    -0.85800
O623        O  0.57711985  0.47295199  0.24863187    -0.93300
O624        O  0.83656813  0.43258723  0.24170012    -0.88300
C625        C  0.56911531  0.47308124  0.21475735     1.16400
C626        C  0.98300276  0.09261727  0.38153051    -0.10100
C627        C  0.98306625  0.12376257  0.40048957    -0.11600
C628        C  0.98260349  0.27497406  0.39119070    -0.10100
C629        C  0.98251627  0.30345668  0.36903490    -0.11600
C630        C  0.98157855  0.12309109  0.16861985    -0.10100
C631        C  0.98188613  0.09209319  0.18753443    -0.11600
C632        C  0.98199605  0.30324269  0.20005516    -0.10100
C633        C  0.98169286  0.27458867  0.17789008    -0.11600
C634        C  0.98146803  0.20705931  0.01738727    -0.10100
C635        C  0.98118638  0.20696827  0.05170802    -0.11600
C636        C  0.78429911  0.47197998  0.39117162    -0.10100
C637        C  0.81295308  0.47228335  0.36900629    -0.11600
C638        C  0.60180458  0.47217677  0.38152520    -0.10100
C639        C  0.63280186  0.47186842  0.40044033    -0.11600
C640        C  0.81316417  0.47280054  0.20002520    -0.10100
C641        C  0.78468122  0.47288669  0.17786886    -0.11600
C642        C  0.63346906  0.47335085  0.16856922    -0.10100
C643        C  0.60232495  0.47328939  0.18752876    -0.11600
C644        C  0.71676894  0.47175664  0.05167275    -0.10100
C645        C  0.71667817  0.47147547  0.01735222    -0.11600
C646        C  0.86261634  0.35355775  0.38155545    -0.10100
C647        C  0.83136062  0.32258319  0.40054172    -0.11600
C648        C  0.67999630  0.17086992  0.39124044    -0.10100
C649        C  0.65164696  0.14222781  0.36904827    -0.11600
C650        C  0.83229700  0.32164438  0.16851973    -0.10100
C651        C  0.86326958  0.35290176  0.18750620    -0.11600
C652        C  0.68058256  0.17028128  0.17781879    -0.10100
C653        C  0.65193928  0.14193286  0.20001066    -0.11600
C654        C  0.74754537  0.23803545  0.01737862    -0.10100
C655        C  0.74774759  0.23783353  0.05168177    -0.11600
C656        C  0.71741138  0.20683021  0.65451530     0.06300
C657        C  0.75651025  0.24568130  0.67203563    -0.09800
C658        C  0.79259847  0.28182095  0.64994797     0.03800
C659        C  0.78962290  0.27906941  0.61019049    -0.08300
C660        C  0.75054382  0.24020090  0.59255094     0.06300
C661        C  0.71440138  0.20403818  0.61470694    -0.07800
H662        H  0.75878978  0.24785722  0.70285860     0.11900
H663        H  0.81752343  0.30707374  0.59305037     0.09400
H664        H  0.68413662  0.17401595  0.60107179     0.09300
C665        C  0.71654596  0.20769759  0.91454450     0.06300
C666        C  0.75539876  0.24679540  0.89702469    -0.09800
C667        C  0.79153758  0.28288383  0.91911292     0.03800
C668        C  0.78878415  0.27990903  0.95887035    -0.08300
C669        C  0.74991423  0.24083086  0.97650938     0.06300
C670        C  0.71375194  0.20468865  0.95435285    -0.07800
H671        H  0.75757598  0.24907451  0.86620187     0.11900
H672        H  0.81678774  0.30780969  0.97601086     0.09400
H673        H  0.68372819  0.17442479  0.96798767     0.09300
C674        C  0.74801717  0.47292425  0.65455710     0.06300
C675        C  0.70930033  0.47335528  0.67207094    -0.09800
C676        C  0.67312960  0.47320154  0.64998650     0.03800
C677        C  0.67572585  0.47267662  0.61021898    -0.08300
C678        C  0.71444643  0.47227290  0.59256860     0.06300
C679        C  0.75061818  0.47238686  0.61474079    -0.07800
H680        H  0.70727279  0.47372129  0.70289148     0.11900
H681        H  0.64773604  0.47253958  0.59307663     0.09400
H682        H  0.78054170  0.47203682  0.60110818     0.09300
C683        C  0.74746781  0.47166634  0.91447501     0.06300
C684        C  0.70854826  0.47170598  0.89694160    -0.09800
C685        C  0.67241597  0.47160911  0.91901391     0.03800
C686        C  0.67519447  0.47143584  0.95877791    -0.08300
C687        C  0.71408669  0.47138331  0.97645160     0.06300
C688        C  0.75025469  0.47148552  0.95429994    -0.07800
H689        H  0.70641623  0.47188917  0.86611898     0.11900
H690        H  0.64726812  0.47142313  0.97590392     0.09400
H691        H  0.78036612  0.47150834  0.96795290     0.09300
C692        C  0.98137915  0.23775767  0.65458625     0.06300
C693        C  0.98141836  0.19883812  0.67211910    -0.09800
C694        C  0.98132027  0.16270580  0.65004660     0.03800
C695        C  0.98114638  0.16548451  0.61028245    -0.08300
C696        C  0.98109452  0.20437674  0.59260894     0.06300
C697        C  0.98119788  0.24054452  0.61476115    -0.07800
H698        H  0.98160191  0.19670602  0.70294198     0.11900
H699        H  0.98113269  0.13755837  0.59315626     0.09400
H700        H  0.98122106  0.27065586  0.60110847     0.09300
C701        C  0.98264120  0.23831034  0.91450245     0.06300
C702        C  0.98210167  0.24090998  0.95431891    -0.09800
C703        C  0.98198640  0.20473800  0.97649106     0.03800
C704        C  0.98239077  0.16601837  0.95884031    -0.08300
C705        C  0.98291794  0.16342329  0.91907261     0.06300
C706        C  0.98307345  0.19959466  0.89698852    -0.07800
H707        H  0.98175066  0.27083244  0.96795160     0.11900
H708        H  0.98225225  0.13802823  0.97598251     0.09400
H709        H  0.98344102  0.19756814  0.86616775     0.09300
O710        O  0.52247360  0.36664022  0.82688500    -0.85000
C711        C  0.62092433  0.11111013  0.72934456     1.15100
O712        O  0.98247848  0.42290799  0.78453803    -1.32800
O713        O  0.62836696  0.07865087  0.82735377    -0.86500
O714        O  0.94230025  0.32685981  0.82736123    -0.87100
O715        O  0.93312684  0.42354320  0.86436133    -0.75900
O716        O  0.57696098  0.47266275  0.82044562    -0.98000
C717        C  0.98279240  0.05940608  0.85430231     1.25100
O718        O  0.93261745  0.47276749  0.78452250    -1.32900
Mn719      Mn  0.98253255  0.47283092  0.74348931     1.82100
O720        O  0.98272155  0.02225397  0.86436292    -0.75000
O721        O  0.58863865  0.11900309  0.82682519    -0.84400
C722        C  0.98224532  0.05914415  0.71474398     1.16200
C723        C  0.62082310  0.11121335  0.83971440     1.10900
O724        O  0.93325179  0.42341573  0.70469953    -0.76000
O725        O  0.53243057  0.02272016  0.78452987    -1.29700
O726        O  0.88799446  0.37814961  0.74861612    -0.95200
C727        C  0.84402519  0.47251876  0.83970483     1.09600
Mn728      Mn  0.53618173  0.09052587  0.78439189     1.48600
O729        O  0.83624062  0.43251950  0.82684197    -0.84400
Mn730      Mn  0.91833041  0.35503063  0.78466298     1.49600
O731        O  0.52240547  0.36692667  0.74172897    -0.88200
C732        C  0.56885579  0.47253657  0.85431567     1.22800
C733        C  0.98223099  0.33431539  0.72935605     1.14900
Mn734      Mn  0.98254154  0.47282324  0.82557096     1.81000
O735        O  0.98237192  0.06724927  0.74861406    -0.93400
Mn736      Mn  0.54651472  0.41913588  0.78442277     1.49300
C737        C  0.98242478  0.33439156  0.83974070     1.11400
Mn738      Mn  0.92884462  0.03680255  0.78463725     1.50500
C739        C  0.84409921  0.47271060  0.72932014     1.14300
O740        O  0.88786083  0.37828445  0.82044526    -0.99200
O741        O  0.58836175  0.11865447  0.74170519    -0.88900
C742        C  0.89590027  0.38646189  0.85431134     1.25600
O743        O  0.98266225  0.06740938  0.82042768    -0.99600
O744        O  0.62871410  0.07892628  0.74223398    -0.87000
O745        O  0.87634770  0.01275941  0.74217537    -0.86600
O746        O  0.94223105  0.32653057  0.74221921    -0.86600
Mn747      Mn  0.60023719  0.02647107  0.78466748     1.47900
O748        O  0.98243188  0.02213187  0.70468060    -0.75100
C749        C  0.89617175  0.38618822  0.71474997     1.18600
O750        O  0.53184355  0.47272396  0.86437920    -0.73800
O751        O  0.53196289  0.47301081  0.70469711    -0.73400
Mn752      Mn  0.86474034  0.40861902  0.78439834     1.51100
O753        O  0.87663553  0.01269279  0.82733130    -0.85800
O754        O  0.57711991  0.47295211  0.74863193    -0.93300
O755        O  0.83656803  0.43258723  0.74170024    -0.88300
C756        C  0.56911538  0.47308135  0.71475742     1.16400
C757        C  0.98300282  0.09261728  0.88153054    -0.10100
C758        C  0.98306619  0.12376255  0.90048959    -0.11600
C759        C  0.98260340  0.27497410  0.89119076    -0.10100
C760        C  0.98251618  0.30345673  0.86903495    -0.11600
C761        C  0.98157863  0.12309110  0.66861980    -0.10100
C762        C  0.98188607  0.09209314  0.68753440    -0.11600
C763        C  0.98199598  0.30324268  0.70005509    -0.10100
C764        C  0.98169296  0.27458872  0.67789003    -0.11600
C765        C  0.98146814  0.20705943  0.51738718    -0.10100
C766        C  0.98118638  0.20696836  0.55170794    -0.11600
C767        C  0.78429916  0.47197994  0.89117174    -0.10100
C768        C  0.81295313  0.47228332  0.86900640    -0.11600
C769        C  0.60180446  0.47217673  0.88152523    -0.10100
C770        C  0.63280175  0.47186838  0.90044039    -0.11600
C771        C  0.81316408  0.47280052  0.70002534    -0.10100
C772        C  0.78468121  0.47288672  0.67786894    -0.11600
C773        C  0.63346908  0.47335080  0.66856929    -0.10100
C774        C  0.60232499  0.47328941  0.68752882    -0.11600
C775        C  0.71676901  0.47175659  0.55167277    -0.10100
C776        C  0.71667829  0.47147544  0.51735223    -0.11600
C777        C  0.86261637  0.35355779  0.88155546    -0.10100
C778        C  0.83136066  0.32258329  0.90054179    -0.11600
C779        C  0.67999639  0.17087003  0.89124041    -0.10100
C780        C  0.65164693  0.14222787  0.86904831    -0.11600
C781        C  0.83229696  0.32164440  0.66851969    -0.10100
C782        C  0.86326960  0.35290169  0.68750620    -0.11600
C783        C  0.68058274  0.17028121  0.67781878    -0.10100
C784        C  0.65193939  0.14193275  0.70001059    -0.11600
C785        C  0.74754549  0.23803544  0.51737855    -0.10100
C786        C  0.74774756  0.23783351  0.55168170    -0.11600
C787        C  0.71741127  0.70683019  0.15451533     0.06300
C788        C  0.75651021  0.74568125  0.17203571    -0.09800
C789        C  0.79259846  0.78182087  0.14994800     0.03800
C790        C  0.78962293  0.77906937  0.11019052    -0.08300
C791        C  0.75054382  0.74020082  0.09255100     0.06300
C792        C  0.71440138  0.70403817  0.11470701    -0.07800
H793        H  0.75878975  0.74785712  0.20285852     0.11900
H794        H  0.81752338  0.80707363  0.09305042     0.09400
H795        H  0.68413659  0.67401584  0.10107182     0.09300
C796        C  0.71654589  0.70769752  0.41454449     0.06300
C797        C  0.75539871  0.74679527  0.39702464    -0.09800
C798        C  0.79153752  0.78288375  0.41911286     0.03800
C799        C  0.78878405  0.77990903  0.45887026    -0.08300
C800        C  0.74991424  0.74083082  0.47650932     0.06300
C801        C  0.71375193  0.70468857  0.45435283    -0.07800
H802        H  0.75757590  0.74907434  0.36620184     0.11900
H803        H  0.81678765  0.80780982  0.47601077     0.09400
H804        H  0.68372822  0.67442473  0.46798769     0.09300
C805        C  0.74801718  0.97292427  0.15455703     0.06300
C806        C  0.70930044  0.97335545  0.17207084    -0.09800
C807        C  0.67312966  0.97320163  0.14998645     0.03800
C808        C  0.67572590  0.97267664  0.11021894    -0.08300
C809        C  0.71444650  0.97227303  0.09256855     0.06300
C810        C  0.75061821  0.97238688  0.11474071    -0.07800
H811        H  0.70727297  0.97372160  0.20289149     0.11900
H812        H  0.64773596  0.97253951  0.09307654     0.09400
H813        H  0.78054164  0.97203671  0.10110809     0.09300
C814        C  0.74746784  0.97166636  0.41447493     0.06300
C815        C  0.70854836  0.97170613  0.39694148    -0.09800
C816        C  0.67241610  0.97160927  0.41901385     0.03800
C817        C  0.67519465  0.97143604  0.45877784    -0.08300
C818        C  0.71408676  0.97138332  0.47645157     0.06300
C819        C  0.75025470  0.97148546  0.45429987    -0.07800
H820        H  0.70641640  0.97188943  0.36611897     0.11900
H821        H  0.64726832  0.97142349  0.47590385     0.09400
H822        H  0.78036611  0.97150819  0.46795279     0.09300
C823        C  0.98137918  0.73775767  0.15458631     0.06300
C824        C  0.98141835  0.69883811  0.17211922    -0.09800
C825        C  0.98132023  0.66270579  0.15004667     0.03800
C826        C  0.98114641  0.66548449  0.11028255    -0.08300
C827        C  0.98109455  0.70437669  0.09260902     0.06300
C828        C  0.98119791  0.74054451  0.11476120    -0.07800
H829        H  0.98160183  0.69670597  0.20294197     0.11900
H830        H  0.98113269  0.63755831  0.09315640     0.09400
H831        H  0.98122109  0.77065576  0.10110850     0.09300
C832        C  0.98264117  0.73831029  0.41450240     0.06300
C833        C  0.98210152  0.74090992  0.45431885    -0.09800
C834        C  0.98198643  0.70473802  0.47649100     0.03800
C835        C  0.98239081  0.66601839  0.45884028    -0.08300
C836        C  0.98291796  0.66342329  0.41907260     0.06300
C837        C  0.98307347  0.69959464  0.39698850    -0.07800
H838        H  0.98175042  0.77083227  0.46795151     0.11900
H839        H  0.98225234  0.63802828  0.47598247     0.09400
H840        H  0.98344109  0.69756812  0.36616775     0.09300
O841        O  0.52247365  0.86664026  0.32688503    -0.85000
C842        C  0.62092435  0.61111014  0.22934461     1.15100
O843        O  0.98247838  0.92290800  0.28453801    -1.32800
O844        O  0.62836702  0.57865087  0.32735369    -0.86500
O845        O  0.94230029  0.82685973  0.32736112    -0.87100
O846        O  0.93312681  0.92354317  0.36436133    -0.75900
O847        O  0.57696100  0.97266275  0.32044560    -0.98000
C848        C  0.98279244  0.55940610  0.35430230     1.25100
O849        O  0.93261739  0.97276744  0.28452247    -1.32900
Mn850      Mn  0.98253249  0.97283089  0.24348925     1.82100
O851        O  0.98272155  0.52225401  0.36436297    -0.75000
O852        O  0.58863858  0.61900297  0.32682526    -0.84400
C853        C  0.98224540  0.55914419  0.21474393     1.16200
C854        C  0.62082309  0.61121328  0.33971441     1.10900
O855        O  0.93325174  0.92341568  0.20469953    -0.76000
O856        O  0.53243063  0.52272016  0.28452983    -1.29700
O857        O  0.88799444  0.87814955  0.24861613    -0.95200
C858        C  0.84402516  0.97251865  0.33970478     1.09600
Mn859      Mn  0.53618174  0.59052582  0.28439191     1.48600
O860        O  0.83624056  0.93251938  0.32684192    -0.84400
Mn861      Mn  0.91833041  0.85503062  0.28466293     1.49600
O862        O  0.52240538  0.86692653  0.24172904    -0.88200
C863        C  0.56885582  0.97253654  0.35431565     1.22800
C864        C  0.98223097  0.83431541  0.22935605     1.14900
Mn865      Mn  0.98254149  0.97282324  0.32557095     1.81000
O866        O  0.98237197  0.56724921  0.24861401    -0.93400
Mn867      Mn  0.54651474  0.91913586  0.28442276     1.49300
C868        C  0.98242480  0.83439152  0.33974064     1.11400
Mn869      Mn  0.92884464  0.53680248  0.28463718     1.50500
C870        C  0.84409915  0.97271049  0.22932002     1.14300
O871        O  0.88786080  0.87828437  0.32044526    -0.99200
O872        O  0.58836180  0.61865446  0.24170532    -0.88900
C873        C  0.89590024  0.88646185  0.35431133     1.25600
O874        O  0.98266225  0.56740929  0.32042765    -0.99600
O875        O  0.62871410  0.57892623  0.24223390    -0.87000
O876        O  0.87634775  0.51275938  0.24217527    -0.86600
O877        O  0.94223101  0.82653068  0.24221908    -0.86600
Mn878      Mn  0.60023722  0.52647104  0.28466739     1.47900
O879        O  0.98243190  0.52213191  0.20468048    -0.75100
C880        C  0.89617171  0.88618818  0.21474997     1.18600
O881        O  0.53184358  0.97272393  0.36437921    -0.73800
O882        O  0.53196305  0.97301102  0.20469703    -0.73400
Mn883      Mn  0.86474032  0.90861894  0.28439830     1.51100
O884        O  0.87663553  0.51269271  0.32733123    -0.85800
O885        O  0.57711992  0.97295208  0.24863188    -0.93300
O886        O  0.83656803  0.93258712  0.24170011    -0.88300
C887        C  0.56911543  0.97308136  0.21475736     1.16400
C888        C  0.98300295  0.59261737  0.38153049    -0.10100
C889        C  0.98306627  0.62376258  0.40048956    -0.11600
C890        C  0.98260341  0.77497404  0.39119069    -0.10100
C891        C  0.98251617  0.80345664  0.36903487    -0.11600
C892        C  0.98157852  0.62309109  0.16861987    -0.10100
C893        C  0.98188613  0.59209322  0.18753444    -0.11600
C894        C  0.98199602  0.80324263  0.20005518    -0.10100
C895        C  0.98169299  0.77458868  0.17789011    -0.11600
C896        C  0.98146822  0.70705942  0.01738726    -0.10100
C897        C  0.98118640  0.70696828  0.05170802    -0.11600
C898        C  0.78429912  0.97197990  0.39117163    -0.10100
C899        C  0.81295306  0.97228326  0.36900628    -0.11600
C900        C  0.60180453  0.97217677  0.38152520    -0.10100
C901        C  0.63280189  0.97186857  0.40044034    -0.11600
C902        C  0.81316404  0.97280041  0.20002520    -0.10100
C903        C  0.78468118  0.97288667  0.17786884    -0.11600
C904        C  0.63346921  0.97335096  0.16856925    -0.10100
C905        C  0.60232508  0.97328946  0.18752880    -0.11600
C906        C  0.71676898  0.97175661  0.05167275    -0.10100
C907        C  0.71667812  0.97147538  0.01735223    -0.11600
C908        C  0.86261631  0.85355783  0.38155548    -0.10100
C909        C  0.83136060  0.82258324  0.40054173    -0.11600
C910        C  0.67999629  0.67087004  0.39124042    -0.10100
C911        C  0.65164694  0.64222784  0.36904830    -0.11600
C912        C  0.83229692  0.82164436  0.16851972    -0.10100
C913        C  0.86326951  0.85290171  0.18750622    -0.11600
C914        C  0.68058263  0.67028118  0.17781879    -0.10100
C915        C  0.65193931  0.64193276  0.20001064    -0.11600
C916        C  0.74754526  0.73803537  0.01737862    -0.10100
C917        C  0.74774749  0.73783345  0.05168177    -0.11600
C918        C  0.71741136  0.70683019  0.65451531     0.06300
C919        C  0.75651022  0.74568129  0.67203564    -0.09800
C920        C  0.79259844  0.78182094  0.64994797     0.03800
C921        C  0.78962284  0.77906938  0.61019049    -0.08300
C922        C  0.75054378  0.74020081  0.59255094     0.06300
C923        C  0.71440143  0.70403808  0.61470696    -0.07800
H924        H  0.75878969  0.74785717  0.70285862     0.11900
H925        H  0.81752334  0.80707372  0.59305036     0.09400
H926        H  0.68413664  0.67401573  0.60107179     0.09300
C927        C  0.71654603  0.70769746  0.91454448     0.06300
C928        C  0.75539888  0.74679524  0.89702469    -0.09800
C929        C  0.79153764  0.78288370  0.91911294     0.03800
C930        C  0.78878412  0.77990896  0.95887037    -0.08300
C931        C  0.74991416  0.74083081  0.97650938     0.06300
C932        C  0.71375191  0.70468858  0.95435283    -0.07800
H933        H  0.75757613  0.74907442  0.86620188     0.11900
H934        H  0.81678764  0.80780967  0.97601090     0.09400
H935        H  0.68372810  0.67442478  0.96798763     0.09300
C936        C  0.74801715  0.97292422  0.65455712     0.06300
C937        C  0.70930037  0.97335541  0.67207096    -0.09800
C938        C  0.67312961  0.97320159  0.64998650     0.03800
C939        C  0.67572585  0.97267661  0.61021898    -0.08300
C940        C  0.71444648  0.97227299  0.59256861     0.06300
C941        C  0.75061818  0.97238684  0.61474080    -0.07800
H942        H  0.70727288  0.97372157  0.70289150     0.11900
H943        H  0.64773596  0.97253947  0.59307662     0.09400
H944        H  0.78054163  0.97203667  0.60110820     0.09300
C945        C  0.74746786  0.97166632  0.91447504     0.06300
C946        C  0.70854839  0.97170609  0.89694160    -0.09800
C947        C  0.67241607  0.97160923  0.91901387     0.03800
C948        C  0.67519455  0.97143600  0.95877788    -0.08300
C949        C  0.71408669  0.97138329  0.97645160     0.06300
C950        C  0.75025465  0.97148542  0.95429998    -0.07800
H951        H  0.70641652  0.97188940  0.86611897     0.11900
H952        H  0.64726830  0.97142347  0.97590385     0.09400
H953        H  0.78036605  0.97150816  0.96795297     0.09300
C954        C  0.98137910  0.73775768  0.65458627     0.06300
C955        C  0.98141845  0.69883819  0.67211912    -0.09800
C956        C  0.98132029  0.66270585  0.65004659     0.03800
C957        C  0.98114638  0.66548457  0.61028246    -0.08300
C958        C  0.98109445  0.70437672  0.59260894     0.06300
C959        C  0.98119776  0.74054449  0.61476116    -0.07800
H960        H  0.98160215  0.69670609  0.70294198     0.11900
H961        H  0.98113272  0.63755835  0.59315621     0.09400
H962        H  0.98122089  0.77065580  0.60110849     0.09300
C963        C  0.98264120  0.73831027  0.91450243     0.06300
C964        C  0.98210157  0.74090988  0.95431888    -0.09800
C965        C  0.98198639  0.70473797  0.97649106     0.03800
C966        C  0.98239073  0.66601832  0.95884034    -0.08300
C967        C  0.98291804  0.66342329  0.91907264     0.06300
C968        C  0.98307358  0.69959464  0.89698853    -0.07800
H969        H  0.98175059  0.77083237  0.96795155     0.11900
H970        H  0.98225213  0.63802814  0.97598255     0.09400
H971        H  0.98344123  0.69756811  0.86616776     0.09300
O972        O  0.52247352  0.86664018  0.82688497    -0.85000
C973        C  0.62092441  0.61111007  0.72934455     1.15100
O974        O  0.98247848  0.92290803  0.78453805    -1.32800
O975        O  0.62836703  0.57865085  0.82735377    -0.86500
O976        O  0.94230031  0.82685979  0.82736120    -0.87100
O977        O  0.93312681  0.92354319  0.86436137    -0.75900
O978        O  0.57696094  0.97266273  0.82044563    -0.98000
C979        C  0.98279244  0.55940607  0.85430231     1.25100
O980        O  0.93261741  0.97276752  0.78452250    -1.32900
Mn981      Mn  0.98253255  0.97283092  0.74348933     1.82100
O982        O  0.98272150  0.52225395  0.86436294    -0.75000
O983        O  0.58863863  0.61900294  0.82682520    -0.84400
C984        C  0.98224539  0.55914423  0.71474398     1.16200
C985        C  0.62082311  0.61121328  0.83971442     1.10900
O986        O  0.93325192  0.92341564  0.70469955    -0.76000
O987        O  0.53243058  0.52272013  0.78452986    -1.29700
O988        O  0.88799445  0.87814962  0.74861611    -0.95200
C989        C  0.84402521  0.97251872  0.83970485     1.09600
Mn990      Mn  0.53618175  0.59052581  0.78439189     1.48600
O991        O  0.83624059  0.93251947  0.82684195    -0.84400
Mn992      Mn  0.91833043  0.85503070  0.78466299     1.49600
O993        O  0.52240550  0.86692677  0.74172895    -0.88200
C994        C  0.56885575  0.97253656  0.85431568     1.22800
C995        C  0.98223099  0.83431551  0.72935602     1.14900
Mn996      Mn  0.98254153  0.97282325  0.82557097     1.81000
O997        O  0.98237196  0.56724929  0.74861406    -0.93400
Mn998      Mn  0.54651472  0.91913588  0.78442277     1.49300
C999        C  0.98242486  0.83439155  0.83974069     1.11400
Mn1000     Mn  0.92884467  0.53680250  0.78463724     1.50500
C1001       C  0.84409923  0.97271064  0.72932011     1.14300
O1002       O  0.88786085  0.87828453  0.82044525    -0.99200
O1003       O  0.58836179  0.61865434  0.74170519    -0.88900
C1004       C  0.89590022  0.88646192  0.85431135     1.25600
O1005       O  0.98266231  0.56740934  0.82042767    -0.99600
O1006       O  0.62871422  0.57892627  0.74223397    -0.87000
O1007       O  0.87634772  0.51275938  0.74217538    -0.86600
O1008       O  0.94223109  0.82653074  0.74221920    -0.86600
Mn1009     Mn  0.60023722  0.52647108  0.78466747     1.47900
O1010       O  0.98243180  0.52213188  0.70468059    -0.75100
C1011       C  0.89617179  0.88618820  0.71474996     1.18600
O1012       O  0.53184348  0.97272390  0.86437921    -0.73800
O1013       O  0.53196298  0.97301097  0.70469717    -0.73400
Mn1014     Mn  0.86474031  0.90861905  0.78439832     1.51100
O1015       O  0.87663552  0.51269280  0.82733126    -0.85800
O1016       O  0.57711998  0.97295209  0.74863193    -0.93300
O1017       O  0.83656801  0.93258726  0.74170026    -0.88300
C1018       C  0.56911538  0.97308134  0.71475742     1.16400
C1019       C  0.98300287  0.59261730  0.88153050    -0.10100
C1020       C  0.98306619  0.62376250  0.90048959    -0.11600
C1021       C  0.98260353  0.77497409  0.89119075    -0.10100
C1022       C  0.98251632  0.80345679  0.86903500    -0.11600
C1023       C  0.98157869  0.62309120  0.66861982    -0.10100
C1024       C  0.98188613  0.59209325  0.68753443    -0.11600
C1025       C  0.98199598  0.80324278  0.70005507    -0.10100
C1026       C  0.98169290  0.77458872  0.67789006    -0.11600
C1027       C  0.98146814  0.70705943  0.51738718    -0.10100
C1028       C  0.98118626  0.70696830  0.55170793    -0.11600
C1029       C  0.78429918  0.97197986  0.89117176    -0.10100
C1030       C  0.81295314  0.97228326  0.86900640    -0.11600
C1031       C  0.60180457  0.97217695  0.88152525    -0.10100
C1032       C  0.63280190  0.97186862  0.90044036    -0.11600
C1033       C  0.81316414  0.97280052  0.70002528    -0.10100
C1034       C  0.78468117  0.97288664  0.67786895    -0.11600
C1035       C  0.63346911  0.97335092  0.66856926    -0.10100
C1036       C  0.60232495  0.97328942  0.68752877    -0.11600
C1037       C  0.71676898  0.97175657  0.55167277    -0.10100
C1038       C  0.71667822  0.97147536  0.51735223    -0.11600
C1039       C  0.86261630  0.85355775  0.88155542    -0.10100
C1040       C  0.83136065  0.82258323  0.90054179    -0.11600
C1041       C  0.67999637  0.67086999  0.89124040    -0.10100
C1042       C  0.65164687  0.64222782  0.86904833    -0.11600
C1043       C  0.83229691  0.82164442  0.66851969    -0.10100
C1044       C  0.86326960  0.85290175  0.68750616    -0.11600
C1045       C  0.68058269  0.67028128  0.67781880    -0.10100
C1046       C  0.65193939  0.64193273  0.70001059    -0.11600
C1047       C  0.74754541  0.73803538  0.51737855    -0.10100
C1048       C  0.74774747  0.73783344  0.55168170    -0.11600
loop_ 
_geom_bond_atom_site_label_1 
_geom_bond_atom_site_label_2 
_geom_bond_distance 
_geom_bond_site_symmetry_2 
_ccdc_geom_bond_type 
C1            C2   1.401       .  A
C1            C6   1.401       .  A
C1          C128   1.440       .  S
C2            C3   1.400       .  A
C2            H7   1.085       .  S
C3            C4   1.399       .  A
C3          C126   1.440       .  S
C4            C5   1.402       .  A
C4            H8   1.085       .  S
C5            C6   1.403       .  A
C5          C131   1.438       .  S
C6            H9   1.085       .  S
C10          C11   1.401       .  A
C10          C15   1.401       .  A
C10         C124   1.440       .  S
C11          C12   1.400       .  A
C11          H16   1.085       .  S
C12          C13   1.399       .  A
C12         C123   1.440       .  S
C13          C14   1.402       .  A
C13          H17   1.085       .  S
C14          C15   1.403       .  A
C14         C261   1.438       .  S
C15          H18   1.085       .  S
C19          C20   1.401       .  A
C19          C24   1.402       .  A
C19         C117   1.441       .  S
C20          C21   1.401       .  A
C20          H25   1.085       .  S
C21          C22   1.400       .  A
C21         C118   1.441       .  S
C22          C23   1.403       .  A
C22          H26   1.085       .  S
C23          C24   1.403       .  A
C23         C120   1.439       .  S
C24          H27   1.084       .  S
C28          C29   1.401       .  A
C28          C33   1.402       .  A
C28         C112   1.441       .  S
C29          C30   1.401       .  A
C29          H34   1.085       .  S
C30          C31   1.400       .  A
C30         C115   1.441       .  S
C31          C32   1.403       .  A
C31          H35   1.085       .  S
C32          C33   1.403       .  A
C32         C252   1.439       .  S
C33          H36   1.084       .  S
C37          C38   1.401       .  A
C37          C42   1.402       .  A
C37         C109   1.441       .  S
C38          C39   1.401       .  A
C38          H43   1.085       .  S
C39          C40   1.400       .  A
C39         C106   1.441       .  S
C40          C41   1.403       .  A
C40          H44   1.085       .  S
C41          C42   1.403       .  A
C41         C111   1.439       .  S
C42          H45   1.084       .  S
C46          C47   1.402       .  A
C46          C51   1.401       .  A
C46         C104   1.441       .  S
C47          C48   1.403       .  A
C47          H52   1.085       .  S
C48          C49   1.403       .  A
C48         C241   1.439       .  S
C49          C50   1.400       .  A
C49          H53   1.085       .  S
C50          C51   1.401       .  A
C50         C103   1.441       .  S
C51          H54   1.085       .  S
O55         Mn81   2.094       .  S
O55         C606   1.270   1_455  A
C56         C129   1.434       .  S
C56          O89   1.270       .  A
C56          O86   1.270       .  A
O57         Mn64   2.163       .  S
O57         Mn75   2.133       .  S
O57         Mn79   2.163       .  S
O57        Mn605   2.134       .  S
O58         Mn92   2.093       .  S
O58          C68   1.270       .  A
O59         Mn75   2.094       .  S
O59          C82   1.270       .  A
O60         Mn79   2.096       .  S
O60          C87   1.250       .  A
O61         Mn81   1.964       .  S
O61        Mn354   1.964       .  S
O61          C77   1.218       .  S
C62         C102   1.435       .  S
C62          O65   1.251       .  A
C62          O88   1.218       .  S
O63         Mn64   2.163       .  S
O63         Mn97   2.133       .  S
O63         Mn79   2.163       .  S
O63        Mn345   2.134       .  S
Mn64         O69   2.096       .  S
Mn64        O355   2.098       .  S
Mn64        O620   2.098       .  S
Mn64        O856   2.161       .  S
O65        Mn341   2.098   1_545  S
O66         Mn73   2.092       .  S
O66          C68   1.270       .  A
C67         C107   1.435       .  S
C67          O93   1.250       .  A
C67          O80   1.218       .  S
C68         C125   1.434       .  S
O69          C94   1.250       .  A
O70         Mn73   2.133       .  S
O70         Mn92   2.133       .  S
O70        Mn850   2.161   1_445  S
O70        Mn865   2.161   1_445  S
O71         Mn75   1.964       .  S
O71         Mn97   1.964       .  S
O71          C94   1.218       .  S
C72         C113   1.436       .  S
C72          O74   1.270       .  A
C72         O360   1.270       .  A
Mn73         O86   2.093       .  S
Mn73        O612   1.964   1_455  S
Mn73        O604   1.964   1_455  S
O74         Mn97   2.094       .  S
Mn75         O91   2.094       .  S
Mn75         O85   1.964       .  S
O76         Mn81   2.094       .  S
O76         C602   1.270   1_455  A
C77         C114   1.435       .  S
C77          O95   1.250       .  A
C78         C108   1.436       .  S
C78          O91   1.270       .  A
C78         O600   1.270       .  A
Mn79        O327   2.098       .  S
Mn79        O619   2.098       .  S
Mn79        O856   2.161       .  S
O80         Mn83   1.964       .  S
O80        Mn597   1.964       .  S
Mn81        O581   2.134   1_455  S
Mn81         O99   1.964       .  S
C82         C105   1.435       .  S
C82         O579   1.270       .  A
Mn83         O90   2.094       .  S
Mn83         O98   2.094       .  S
Mn83        O325   2.134   1_545  S
Mn83         O88   1.964       .  S
C84         C116   1.435       .  S
C84         O100   1.270       .  A
C84         O352   1.270       .  A
O85         Mn97   1.964       .  S
O85          C87   1.218       .  S
C87         C122   1.434       .  S
O88        Mn597   1.964       .  S
O89         Mn92   2.092       .  S
O90         C346   1.270   1_545  A
Mn92        O323   1.964   1_545  S
Mn92        O361   1.964   1_545  S
O93        Mn326   2.098   1_545  S
C94         C127   1.434       .  S
O95        Mn603   2.098   1_455  S
O96        Mn588   2.098   1_455  S
O96         C101   1.251       .  A
Mn97        O100   2.094       .  S
O98         C334   1.270   1_545  A
O99        Mn354   1.964       .  S
O99         C101   1.218       .  S
C101        C119   1.435       .  S
C102        C103   1.206       .  T
C104        C105   1.206       .  T
C106        C107   1.206       .  T
C108        C109   1.206       .  T
C110        C179   1.439   1_554  S
C110        C111   1.205       .  T
C112        C113   1.206       .  T
C114        C115   1.206       .  T
C116        C117   1.206       .  T
C118        C119   1.206       .  T
C120        C121   1.205       .  T
C121        C163   1.439   1_554  S
C122        C123   1.206       .  T
C124        C125   1.206       .  T
C126        C127   1.206       .  T
C128        C129   1.206       .  T
C130        C145   1.438   1_554  S
C130        C131   1.205       .  T
C132        C133   1.401       .  A
C132        C137   1.401       .  A
C132        C259   1.440       .  S
C133        C134   1.400       .  A
C133        H138   1.085       .  S
C134        C135   1.399       .  A
C134        C257   1.440       .  S
C135        C136   1.402       .  A
C135        H139   1.085       .  S
C136        C137   1.403       .  A
C136        C262   1.438       .  S
C137        H140   1.085       .  S
C141        C142   1.401       .  A
C141        C146   1.401       .  A
C141        C255   1.440       .  S
C142        C143   1.400       .  A
C142        H147   1.085       .  S
C143        C144   1.399       .  A
C143        C254   1.440       .  S
C144        C145   1.402       .  A
C144        H148   1.085       .  S
C145        C146   1.403       .  A
C146        H149   1.085       .  S
C150        C151   1.401       .  A
C150        C155   1.402       .  A
C150        C248   1.441       .  S
C151        C152   1.401       .  A
C151        H156   1.085       .  S
C152        C153   1.400       .  A
C152        C249   1.441       .  S
C153        C154   1.403       .  A
C153        H157   1.085       .  S
C154        C155   1.403       .  A
C154        C251   1.439       .  S
C155        H158   1.084       .  S
C159        C160   1.401       .  A
C159        C164   1.402       .  A
C159        C243   1.441       .  S
C160        C161   1.401       .  A
C160        H165   1.085       .  S
C161        C162   1.400       .  A
C161        C246   1.441       .  S
C162        C163   1.403       .  A
C162        H166   1.085       .  S
C163        C164   1.403       .  A
C164        H167   1.084       .  S
C168        C169   1.401       .  A
C168        C173   1.402       .  A
C168        C240   1.441       .  S
C169        C170   1.401       .  A
C169        H174   1.085       .  S
C170        C171   1.400       .  A
C170        C237   1.441       .  S
C171        C172   1.403       .  A
C171        H175   1.085       .  S
C172        C173   1.403       .  A
C172        C242   1.439       .  S
C173        H176   1.084       .  S
C177        C178   1.402       .  A
C177        C182   1.401       .  A
C177        C235   1.441       .  S
C178        C179   1.403       .  A
C178        H183   1.084       .  S
C179        C180   1.403       .  A
C180        C181   1.400       .  A
C180        H184   1.085       .  S
C181        C182   1.401       .  A
C181        C234   1.441       .  S
C182        H185   1.085       .  S
O186       Mn212   2.094       .  S
O186        C737   1.270   1_455  A
C187        C260   1.434       .  S
C187        O220   1.270       .  A
C187        O217   1.270       .  A
O188       Mn195   2.163       .  S
O188       Mn206   2.133       .  S
O188       Mn210   2.163       .  S
O188       Mn736   2.134       .  S
O189       Mn223   2.093       .  S
O189        C199   1.270       .  A
O190       Mn206   2.094       .  S
O190        C213   1.270       .  A
O191       Mn210   2.096       .  S
O191        C218   1.250       .  A
O192       Mn485   1.964       .  S
O192       Mn212   1.964       .  S
O192        C208   1.218       .  S
C193        C233   1.435       .  S
C193        O196   1.251       .  A
C193        O219   1.218       .  S
O194       Mn476   2.134       .  S
O194       Mn195   2.163       .  S
O194       Mn228   2.133       .  S
O194       Mn210   2.163       .  S
Mn195       O486   2.098       .  S
Mn195       O200   2.096       .  S
Mn195       O751   2.098       .  S
Mn195       O987   2.161       .  S
O196       Mn472   2.098   1_545  S
O197       Mn204   2.092       .  S
O197        C199   1.270       .  A
C198        C238   1.435       .  S
C198        O224   1.250       .  A
C198        O211   1.218       .  S
C199        C256   1.434       .  S
O200        C225   1.250       .  A
O201       Mn981   2.161   1_445  S
O201       Mn204   2.133       .  S
O201       Mn223   2.133       .  S
O201       Mn996   2.161   1_445  S
O202       Mn206   1.964       .  S
O202       Mn228   1.964       .  S
O202        C225   1.218       .  S
C203        C244   1.436       .  S
C203        O491   1.270       .  A
C203        O205   1.270       .  A
Mn204       O217   2.093       .  S
Mn204       O743   1.964   1_455  S
Mn204       O735   1.964   1_455  S
O205       Mn228   2.094       .  S
Mn206       O222   2.094       .  S
Mn206       O216   1.964       .  S
O207       Mn212   2.094       .  S
O207        C733   1.270   1_455  A
C208        C245   1.435       .  S
C208        O226   1.250       .  A
C209        C239   1.436       .  S
C209        O731   1.270       .  A
C209        O222   1.270       .  A
Mn210       O458   2.098       .  S
Mn210       O750   2.098       .  S
Mn210       O987   2.161       .  S
O211       Mn728   1.964       .  S
O211       Mn214   1.964       .  S
Mn212       O712   2.134   1_455  S
Mn212       O230   1.964       .  S
C213        C236   1.435       .  S
C213        O710   1.270       .  A
Mn214       O221   2.094       .  S
Mn214       O229   2.094       .  S
Mn214       O456   2.134   1_545  S
Mn214       O219   1.964       .  S
C215        C247   1.435       .  S
C215        O483   1.270       .  A
C215        O231   1.270       .  A
O216       Mn228   1.964       .  S
O216        C218   1.218       .  S
C218        C253   1.434       .  S
O219       Mn728   1.964       .  S
O220       Mn223   2.092       .  S
O221        C477   1.270   1_545  A
Mn223       O454   1.964   1_545  S
Mn223       O492   1.964   1_545  S
O224       Mn457   2.098   1_545  S
C225        C258   1.434       .  S
O226       Mn734   2.098   1_455  S
O227       Mn719   2.098   1_455  S
O227        C232   1.251       .  A
Mn228       O231   2.094       .  S
O229        C465   1.270   1_545  A
O230       Mn485   1.964       .  S
O230        C232   1.218       .  S
C232        C250   1.435       .  S
C233        C234   1.206       .  T
C235        C236   1.206       .  T
C237        C238   1.206       .  T
C239        C240   1.206       .  T
C241        C242   1.205       .  T
C243        C244   1.206       .  T
C245        C246   1.206       .  T
C247        C248   1.206       .  T
C249        C250   1.206       .  T
C251        C252   1.205       .  T
C253        C254   1.206       .  T
C255        C256   1.206       .  T
C257        C258   1.206       .  T
C259        C260   1.206       .  T
C261        C262   1.205       .  T
C263        C264   1.401       .  A
C263        C268   1.401       .  A
C263        C390   1.440       .  S
C264        C265   1.400       .  A
C264        H269   1.085       .  S
C265        C266   1.399       .  A
C265        C388   1.440       .  S
C266        C267   1.402       .  A
C266        H270   1.085       .  S
C267        C268   1.403       .  A
C267        C393   1.438       .  S
C268        H271   1.085       .  S
C272        C273   1.401       .  A
C272        C277   1.401       .  A
C272        C386   1.440       .  S
C273        C274   1.400       .  A
C273        H278   1.085       .  S
C274        C275   1.399       .  A
C274        C385   1.440       .  S
C275        C276   1.402       .  A
C275        H279   1.085       .  S
C276        C277   1.403       .  A
C276        C523   1.438       .  S
C277        H280   1.085       .  S
C281        C282   1.401       .  A
C281        C286   1.402       .  A
C281        C379   1.441       .  S
C282        C283   1.401       .  A
C282        H287   1.085       .  S
C283        C284   1.400       .  A
C283        C380   1.441       .  S
C284        C285   1.403       .  A
C284        H288   1.085       .  S
C285        C286   1.403       .  A
C285        C382   1.439       .  S
C286        H289   1.084       .  S
C290        C291   1.401       .  A
C290        C295   1.402       .  A
C290        C374   1.441       .  S
C291        C292   1.401       .  A
C291        H296   1.085       .  S
C292        C293   1.400       .  A
C292        C377   1.441       .  S
C293        C294   1.403       .  A
C293        H297   1.085       .  S
C294        C295   1.403       .  A
C294        C514   1.439       .  S
C295        H298   1.084       .  S
C299        C300   1.401       .  A
C299        C304   1.402       .  A
C299        C371   1.441       .  S
C300        C301   1.401       .  A
C300        H305   1.085       .  S
C301        C302   1.400       .  A
C301        C368   1.441       .  S
C302        C303   1.403       .  A
C302        H306   1.085       .  S
C303        C304   1.403       .  A
C303        C373   1.439       .  S
C304        H307   1.084       .  S
C308        C309   1.402       .  A
C308        C313   1.401       .  A
C308        C366   1.441       .  S
C309        C310   1.403       .  A
C309        H314   1.084       .  S
C310        C311   1.403       .  A
C310        C503   1.439       .  S
C311        C312   1.400       .  A
C311        H315   1.085       .  S
C312        C313   1.401       .  A
C312        C365   1.441       .  S
C313        H316   1.085       .  S
O317       Mn343   2.094       .  S
O317        C868   1.270   1_455  A
C318        C391   1.434       .  S
C318        O351   1.270       .  A
C318        O348   1.270       .  A
O319       Mn326   2.163       .  S
O319       Mn337   2.133       .  S
O319       Mn341   2.163       .  S
O319       Mn867   2.134       .  S
O320       Mn354   2.093       .  S
O320        C330   1.270       .  A
O321       Mn337   2.094       .  S
O321        C344   1.270       .  A
O322       Mn341   2.096       .  S
O322        C349   1.250       .  A
O323       Mn343   1.964       .  S
O323        C339   1.218       .  S
C324        C364   1.435       .  S
C324        O327   1.251       .  A
C324        O350   1.218       .  S
O325       Mn326   2.163       .  S
O325       Mn359   2.133       .  S
O325       Mn341   2.163       .  S
Mn326       O331   2.096       .  S
Mn326       O882   2.098       .  S
Mn326       O594   2.161   1_565  S
O328       Mn335   2.092       .  S
O328        C330   1.270       .  A
C329        C369   1.435       .  S
C329        O355   1.250       .  A
C329        O342   1.218       .  S
C330        C387   1.434       .  S
O331        C356   1.250       .  A
O332       Mn588   2.161   1_455  S
O332       Mn335   2.133       .  S
O332       Mn354   2.133       .  S
O332       Mn603   2.161   1_455  S
O333       Mn337   1.964       .  S
O333       Mn359   1.964       .  S
O333        C356   1.218       .  S
C334        C375   1.436       .  S
C334        O336   1.270       .  A
Mn335       O348   2.093       .  S
Mn335       O874   1.964   1_455  S
Mn335       O866   1.964   1_455  S
O336       Mn359   2.094       .  S
Mn337       O353   2.094       .  S
Mn337       O347   1.964       .  S
O338       Mn343   2.094       .  S
O338        C864   1.270   1_455  A
C339        C376   1.435       .  S
C339        O357   1.250       .  A
C340        C370   1.436       .  S
C340        O862   1.270       .  A
C340        O353   1.270       .  A
Mn341       O881   2.098       .  S
Mn341       O594   2.161   1_565  S
O342       Mn859   1.964       .  S
O342       Mn345   1.964       .  S
Mn343       O843   2.134   1_455  S
Mn343       O361   1.964       .  S
C344        C367   1.435       .  S
C344        O841   1.270       .  A
Mn345       O352   2.094       .  S
Mn345       O360   2.094       .  S
Mn345       O350   1.964       .  S
C346        C378   1.435       .  S
C346        O362   1.270       .  A
O347       Mn359   1.964       .  S
O347        C349   1.218       .  S
C349        C384   1.434       .  S
O350       Mn859   1.964       .  S
O351       Mn354   2.092       .  S
C356        C389   1.434       .  S
O357       Mn865   2.098   1_455  S
O358       Mn850   2.098   1_455  S
O358        C363   1.251       .  A
Mn359       O362   2.094       .  S
O361        C363   1.218       .  S
C363        C381   1.435       .  S
C364        C365   1.206       .  T
C366        C367   1.206       .  T
C368        C369   1.206       .  T
C370        C371   1.206       .  T
C372        C441   1.439   1_554  S
C372        C373   1.205       .  T
C374        C375   1.206       .  T
C376        C377   1.206       .  T
C378        C379   1.206       .  T
C380        C381   1.206       .  T
C382        C383   1.205       .  T
C383        C425   1.439   1_554  S
C384        C385   1.206       .  T
C386        C387   1.206       .  T
C388        C389   1.206       .  T
C390        C391   1.206       .  T
C392        C407   1.438   1_554  S
C392        C393   1.205       .  T
C394        C395   1.401       .  A
C394        C399   1.401       .  A
C394        C521   1.440       .  S
C395        C396   1.400       .  A
C395        H400   1.085       .  S
C396        C397   1.399       .  A
C396        C519   1.440       .  S
C397        C398   1.402       .  A
C397        H401   1.085       .  S
C398        C399   1.403       .  A
C398        C524   1.438       .  S
C399        H402   1.085       .  S
C403        C404   1.401       .  A
C403        C408   1.401       .  A
C403        C517   1.440       .  S
C404        C405   1.400       .  A
C404        H409   1.085       .  S
C405        C406   1.399       .  A
C405        C516   1.440       .  S
C406        C407   1.402       .  A
C406        H410   1.085       .  S
C407        C408   1.403       .  A
C408        H411   1.085       .  S
C412        C413   1.401       .  A
C412        C417   1.402       .  A
C412        C510   1.441       .  S
C413        C414   1.401       .  A
C413        H418   1.085       .  S
C414        C415   1.400       .  A
C414        C511   1.441       .  S
C415        C416   1.403       .  A
C415        H419   1.085       .  S
C416        C417   1.403       .  A
C416        C513   1.439       .  S
C417        H420   1.084       .  S
C421        C422   1.401       .  A
C421        C426   1.402       .  A
C421        C505   1.441       .  S
C422        C423   1.401       .  A
C422        H427   1.085       .  S
C423        C424   1.400       .  A
C423        C508   1.441       .  S
C424        C425   1.403       .  A
C424        H428   1.085       .  S
C425        C426   1.403       .  A
C426        H429   1.084       .  S
C430        C431   1.401       .  A
C430        C435   1.402       .  A
C430        C502   1.441       .  S
C431        C432   1.401       .  A
C431        H436   1.085       .  S
C432        C433   1.400       .  A
C432        C499   1.441       .  S
C433        C434   1.403       .  A
C433        H437   1.085       .  S
C434        C435   1.403       .  A
C434        C504   1.439       .  S
C435        H438   1.084       .  S
C439        C440   1.402       .  A
C439        C444   1.401       .  A
C439        C497   1.441       .  S
C440        C441   1.403       .  A
C440        H445   1.084       .  S
C441        C442   1.403       .  A
C442        C443   1.400       .  A
C442        H446   1.085       .  S
C443        C444   1.401       .  A
C443        C496   1.441       .  S
C444        H447   1.085       .  S
O448       Mn474   2.094       .  S
O448        C999   1.270   1_455  A
C449        C522   1.434       .  S
C449        O482   1.270       .  A
C449        O479   1.270       .  A
O450       Mn457   2.163       .  S
O450       Mn468   2.133       .  S
O450       Mn472   2.163       .  S
O450       Mn998   2.134       .  S
O451       Mn485   2.093       .  S
O451        C461   1.270       .  A
O452       Mn468   2.094       .  S
O452        C475   1.270       .  A
O453       Mn472   2.096       .  S
O453        C480   1.250       .  A
O454       Mn474   1.964       .  S
O454        C470   1.218       .  S
C455        C495   1.435       .  S
C455        O458   1.251       .  A
C455        O481   1.218       .  S
O456       Mn457   2.163       .  S
O456       Mn490   2.133       .  S
O456       Mn472   2.163       .  S
Mn457       O462   2.096       .  S
Mn457      O1013   2.098       .  S
Mn457       O725   2.161   1_565  S
O459       Mn466   2.092       .  S
O459        C461   1.270       .  A
C460        C500   1.435       .  S
C460        O486   1.250       .  A
C460        O473   1.218       .  S
C461        C518   1.434       .  S
O462        C487   1.250       .  A
O463       Mn719   2.161   1_455  S
O463       Mn466   2.133       .  S
O463       Mn485   2.133       .  S
O463       Mn734   2.161   1_455  S
O464       Mn468   1.964       .  S
O464       Mn490   1.964       .  S
O464        C487   1.218       .  S
C465        C506   1.436       .  S
C465        O467   1.270       .  A
Mn466       O479   2.093       .  S
Mn466      O1005   1.964   1_455  S
Mn466       O997   1.964   1_455  S
O467       Mn490   2.094       .  S
Mn468       O484   2.094       .  S
Mn468       O478   1.964       .  S
O469       Mn474   2.094       .  S
O469        C995   1.270   1_455  A
C470        C507   1.435       .  S
C470        O488   1.250       .  A
C471        C501   1.436       .  S
C471        O993   1.270       .  A
C471        O484   1.270       .  A
Mn472      O1012   2.098       .  S
Mn472       O725   2.161   1_565  S
O473       Mn990   1.964       .  S
O473       Mn476   1.964       .  S
Mn474       O974   2.134   1_455  S
Mn474       O492   1.964       .  S
C475        C498   1.435       .  S
C475        O972   1.270       .  A
Mn476       O483   2.094       .  S
Mn476       O491   2.094       .  S
Mn476       O481   1.964       .  S
C477        C509   1.435       .  S
C477        O493   1.270       .  A
O478       Mn490   1.964       .  S
O478        C480   1.218       .  S
C480        C515   1.434       .  S
O481       Mn990   1.964       .  S
O482       Mn485   2.092       .  S
C487        C520   1.434       .  S
O488       Mn996   2.098   1_455  S
O489       Mn981   2.098   1_455  S
O489        C494   1.251       .  A
Mn490       O493   2.094       .  S
O492        C494   1.218       .  S
C494        C512   1.435       .  S
C495        C496   1.206       .  T
C497        C498   1.206       .  T
C499        C500   1.206       .  T
C501        C502   1.206       .  T
C503        C504   1.205       .  T
C505        C506   1.206       .  T
C507        C508   1.206       .  T
C509        C510   1.206       .  T
C511        C512   1.206       .  T
C513        C514   1.205       .  T
C515        C516   1.206       .  T
C517        C518   1.206       .  T
C519        C520   1.206       .  T
C521        C522   1.206       .  T
C523        C524   1.205       .  T
C525        C526   1.401       .  A
C525        C530   1.401       .  A
C525        C652   1.440       .  S
C526        C527   1.400       .  A
C526        H531   1.085       .  S
C527        C528   1.399       .  A
C527        C650   1.440       .  S
C528        C529   1.402       .  A
C528        H532   1.085       .  S
C529        C530   1.403       .  A
C529        C655   1.438       .  S
C530        H533   1.085       .  S
C534        C535   1.401       .  A
C534        C539   1.401       .  A
C534        C648   1.440       .  S
C535        C536   1.400       .  A
C535        H540   1.085       .  S
C536        C537   1.399       .  A
C536        C647   1.440       .  S
C537        C538   1.402       .  A
C537        H541   1.085       .  S
C538        C539   1.403       .  A
C538        C785   1.438       .  S
C539        H542   1.085       .  S
C543        C544   1.401       .  A
C543        C548   1.402       .  A
C543        C641   1.441       .  S
C544        C545   1.401       .  A
C544        H549   1.085       .  S
C545        C546   1.400       .  A
C545        C642   1.441       .  S
C546        C547   1.403       .  A
C546        H550   1.085       .  S
C547        C548   1.403       .  A
C547        C644   1.439       .  S
C548        H551   1.084       .  S
C552        C553   1.401       .  A
C552        C557   1.402       .  A
C552        C636   1.441       .  S
C553        C554   1.401       .  A
C553        H558   1.085       .  S
C554        C555   1.400       .  A
C554        C639   1.441       .  S
C555        C556   1.403       .  A
C555        H559   1.085       .  S
C556        C557   1.403       .  A
C556        C776   1.439       .  S
C557        H560   1.084       .  S
C561        C562   1.401       .  A
C561        C566   1.402       .  A
C561        C633   1.441       .  S
C562        C563   1.401       .  A
C562        H567   1.085       .  S
C563        C564   1.400       .  A
C563        C630   1.441       .  S
C564        C565   1.403       .  A
C564        H568   1.085       .  S
C565        C566   1.403       .  A
C565        C635   1.439       .  S
C566        H569   1.084       .  S
C570        C571   1.402       .  A
C570        C575   1.401       .  A
C570        C628   1.441       .  S
C571        C572   1.403       .  A
C571        H576   1.084       .  S
C572        C573   1.403       .  A
C572        C765   1.439       .  S
C573        C574   1.400       .  A
C573        H577   1.085       .  S
C574        C575   1.401       .  A
C574        C627   1.441       .  S
C575        H578   1.085       .  S
O579       Mn605   2.094       .  S
C580        C653   1.434       .  S
C580        O613   1.270       .  A
C580        O610   1.270       .  A
O581       Mn588   2.163       .  S
O581       Mn599   2.133       .  S
O581       Mn603   2.163       .  S
O582       Mn616   2.093       .  S
O582        C592   1.270       .  A
O583       Mn599   2.094       .  S
O583        C606   1.270       .  A
O584       Mn603   2.096       .  S
O584        C611   1.250       .  A
O585       Mn878   1.964       .  S
O585       Mn605   1.964       .  S
O585        C601   1.218       .  S
C586        C626   1.435       .  S
C586        O589   1.251       .  A
C586        O612   1.218       .  S
O587       Mn869   2.134       .  S
O587       Mn588   2.163       .  S
O587       Mn621   2.133       .  S
O587       Mn603   2.163       .  S
Mn588       O879   2.098       .  S
Mn588       O593   2.096       .  S
O589       Mn865   2.098   1_545  S
O590       Mn597   2.092       .  S
O590        C592   1.270       .  A
C591        C631   1.435       .  S
C591        O617   1.250       .  A
C591        O604   1.218       .  S
C592        C649   1.434       .  S
O593        C618   1.250       .  A
O594       Mn597   2.133       .  S
O594       Mn616   2.133       .  S
O595       Mn599   1.964       .  S
O595       Mn621   1.964       .  S
O595        C618   1.218       .  S
C596        C637   1.436       .  S
C596        O884   1.270       .  A
C596        O598   1.270       .  A
Mn597       O610   2.093       .  S
O598       Mn621   2.094       .  S
Mn599       O615   2.094       .  S
Mn599       O609   1.964       .  S
O600       Mn605   2.094       .  S
C601        C638   1.435       .  S
C601        O619   1.250       .  A
C602        C632   1.436       .  S
C602        O615   1.270       .  A
Mn603       O851   2.098       .  S
O604       Mn607   1.964       .  S
Mn605       O623   1.964       .  S
C606        C629   1.435       .  S
Mn607       O614   2.094       .  S
Mn607       O622   2.094       .  S
Mn607       O849   2.134   1_545  S
Mn607       O612   1.964       .  S
C608        C640   1.435       .  S
C608        O876   1.270       .  A
C608        O624   1.270       .  A
O609       Mn621   1.964       .  S
O609        C611   1.218       .  S
C611        C646   1.434       .  S
O613       Mn616   2.092       .  S
O614        C870   1.270   1_545  A
Mn616       O847   1.964   1_545  S
Mn616       O885   1.964   1_545  S
O617       Mn850   2.098   1_545  S
C618        C651   1.434       .  S
O620        C625   1.251       .  A
Mn621       O624   2.094       .  S
O622        C858   1.270   1_545  A
O623       Mn878   1.964       .  S
O623        C625   1.218       .  S
C625        C643   1.435       .  S
C626        C627   1.206       .  T
C628        C629   1.206       .  T
C630        C631   1.206       .  T
C632        C633   1.206       .  T
C634        C703   1.439   1_554  S
C634        C635   1.205       .  T
C636        C637   1.206       .  T
C638        C639   1.206       .  T
C640        C641   1.206       .  T
C642        C643   1.206       .  T
C644        C645   1.205       .  T
C645        C687   1.439   1_554  S
C646        C647   1.206       .  T
C648        C649   1.206       .  T
C650        C651   1.206       .  T
C652        C653   1.206       .  T
C654        C669   1.438   1_554  S
C654        C655   1.205       .  T
C656        C657   1.401       .  A
C656        C661   1.401       .  A
C656        C783   1.440       .  S
C657        C658   1.400       .  A
C657        H662   1.085       .  S
C658        C659   1.399       .  A
C658        C781   1.440       .  S
C659        C660   1.402       .  A
C659        H663   1.085       .  S
C660        C661   1.403       .  A
C660        C786   1.438       .  S
C661        H664   1.085       .  S
C665        C666   1.401       .  A
C665        C670   1.401       .  A
C665        C779   1.440       .  S
C666        C667   1.400       .  A
C666        H671   1.085       .  S
C667        C668   1.399       .  A
C667        C778   1.440       .  S
C668        C669   1.402       .  A
C668        H672   1.085       .  S
C669        C670   1.403       .  A
C670        H673   1.085       .  S
C674        C675   1.401       .  A
C674        C679   1.402       .  A
C674        C772   1.441       .  S
C675        C676   1.401       .  A
C675        H680   1.085       .  S
C676        C677   1.400       .  A
C676        C773   1.441       .  S
C677        C678   1.403       .  A
C677        H681   1.085       .  S
C678        C679   1.403       .  A
C678        C775   1.439       .  S
C679        H682   1.084       .  S
C683        C684   1.401       .  A
C683        C688   1.402       .  A
C683        C767   1.441       .  S
C684        C685   1.401       .  A
C684        H689   1.085       .  S
C685        C686   1.400       .  A
C685        C770   1.441       .  S
C686        C687   1.403       .  A
C686        H690   1.085       .  S
C687        C688   1.403       .  A
C688        H691   1.084       .  S
C692        C693   1.401       .  A
C692        C697   1.402       .  A
C692        C764   1.441       .  S
C693        C694   1.401       .  A
C693        H698   1.085       .  S
C694        C695   1.400       .  A
C694        C761   1.441       .  S
C695        C696   1.403       .  A
C695        H699   1.085       .  S
C696        C697   1.403       .  A
C696        C766   1.439       .  S
C697        H700   1.084       .  S
C701        C702   1.402       .  A
C701        C706   1.401       .  A
C701        C759   1.441       .  S
C702        C703   1.403       .  A
C702        H707   1.084       .  S
C703        C704   1.403       .  A
C704        C705   1.400       .  A
C704        H708   1.085       .  S
C705        C706   1.401       .  A
C705        C758   1.441       .  S
C706        H709   1.085       .  S
O710       Mn736   2.094       .  S
C711        C784   1.434       .  S
C711        O744   1.270       .  A
C711        O741   1.270       .  A
O712       Mn719   2.163       .  S
O712       Mn730   2.133       .  S
O712       Mn734   2.163       .  S
O713       Mn747   2.093       .  S
O713        C723   1.270       .  A
O714       Mn730   2.094       .  S
O714        C737   1.270       .  A
O715       Mn734   2.096       .  S
O715        C742   1.250       .  A
O716      Mn1009   1.964       .  S
O716       Mn736   1.964       .  S
O716        C732   1.218       .  S
C717        C757   1.435       .  S
C717        O720   1.251       .  A
C717        O743   1.218       .  S
O718      Mn1000   2.134       .  S
O718       Mn719   2.163       .  S
O718       Mn752   2.133       .  S
O718       Mn734   2.163       .  S
Mn719      O1010   2.098       .  S
Mn719       O724   2.096       .  S
O720       Mn996   2.098   1_545  S
O721       Mn728   2.092       .  S
O721        C723   1.270       .  A
C722        C762   1.435       .  S
C722        O748   1.250       .  A
C722        O735   1.218       .  S
C723        C780   1.434       .  S
O724        C749   1.250       .  A
O725       Mn728   2.133       .  S
O725       Mn747   2.133       .  S
O726       Mn730   1.964       .  S
O726       Mn752   1.964       .  S
O726        C749   1.218       .  S
C727        C768   1.436       .  S
C727       O1015   1.270       .  A
C727        O729   1.270       .  A
Mn728       O741   2.093       .  S
O729       Mn752   2.094       .  S
Mn730       O746   2.094       .  S
Mn730       O740   1.964       .  S
O731       Mn736   2.094       .  S
C732        C769   1.435       .  S
C732        O750   1.250       .  A
C733        C763   1.436       .  S
C733        O746   1.270       .  A
Mn734       O982   2.098       .  S
O735       Mn738   1.964       .  S
Mn736       O754   1.964       .  S
C737        C760   1.435       .  S
Mn738       O745   2.094       .  S
Mn738       O753   2.094       .  S
Mn738       O980   2.134   1_545  S
Mn738       O743   1.964       .  S
C739        C771   1.435       .  S
C739       O1007   1.270       .  A
C739        O755   1.270       .  A
O740       Mn752   1.964       .  S
O740        C742   1.218       .  S
C742        C777   1.434       .  S
O744       Mn747   2.092       .  S
O745       C1001   1.270   1_545  A
Mn747       O978   1.964   1_545  S
Mn747      O1016   1.964   1_545  S
O748       Mn981   2.098   1_545  S
C749        C782   1.434       .  S
O751        C756   1.251       .  A
Mn752       O755   2.094       .  S
O753        C989   1.270   1_545  A
O754      Mn1009   1.964       .  S
O754        C756   1.218       .  S
C756        C774   1.435       .  S
C757        C758   1.206       .  T
C759        C760   1.206       .  T
C761        C762   1.206       .  T
C763        C764   1.206       .  T
C765        C766   1.205       .  T
C767        C768   1.206       .  T
C769        C770   1.206       .  T
C771        C772   1.206       .  T
C773        C774   1.206       .  T
C775        C776   1.205       .  T
C777        C778   1.206       .  T
C779        C780   1.206       .  T
C781        C782   1.206       .  T
C783        C784   1.206       .  T
C785        C786   1.205       .  T
C787        C788   1.401       .  A
C787        C792   1.401       .  A
C787        C914   1.440       .  S
C788        C789   1.400       .  A
C788        H793   1.085       .  S
C789        C790   1.399       .  A
C789        C912   1.440       .  S
C790        C791   1.402       .  A
C790        H794   1.085       .  S
C791        C792   1.403       .  A
C791        C917   1.438       .  S
C792        H795   1.085       .  S
C796        C797   1.401       .  A
C796        C801   1.401       .  A
C796        C910   1.440       .  S
C797        C798   1.400       .  A
C797        H802   1.085       .  S
C798        C799   1.399       .  A
C798        C909   1.440       .  S
C799        C800   1.402       .  A
C799        H803   1.085       .  S
C800        C801   1.403       .  A
C800       C1047   1.438       .  S
C801        H804   1.085       .  S
C805        C806   1.401       .  A
C805        C810   1.402       .  A
C805        C903   1.441       .  S
C806        C807   1.401       .  A
C806        H811   1.085       .  S
C807        C808   1.400       .  A
C807        C904   1.441       .  S
C808        C809   1.403       .  A
C808        H812   1.085       .  S
C809        C810   1.403       .  A
C809        C906   1.439       .  S
C810        H813   1.084       .  S
C814        C815   1.401       .  A
C814        C819   1.402       .  A
C814        C898   1.441       .  S
C815        C816   1.401       .  A
C815        H820   1.085       .  S
C816        C817   1.400       .  A
C816        C901   1.441       .  S
C817        C818   1.403       .  A
C817        H821   1.085       .  S
C818        C819   1.403       .  A
C818       C1038   1.439       .  S
C819        H822   1.084       .  S
C823        C824   1.401       .  A
C823        C828   1.402       .  A
C823        C895   1.441       .  S
C824        C825   1.401       .  A
C824        H829   1.085       .  S
C825        C826   1.400       .  A
C825        C892   1.441       .  S
C826        C827   1.403       .  A
C826        H830   1.085       .  S
C827        C828   1.403       .  A
C827        C897   1.439       .  S
C828        H831   1.084       .  S
C832        C833   1.402       .  A
C832        C837   1.401       .  A
C832        C890   1.441       .  S
C833        C834   1.403       .  A
C833        H838   1.084       .  S
C834        C835   1.403       .  A
C834       C1027   1.439       .  S
C835        C836   1.400       .  A
C835        H839   1.085       .  S
C836        C837   1.401       .  A
C836        C889   1.441       .  S
C837        H840   1.085       .  S
O841       Mn867   2.094       .  S
C842        C915   1.434       .  S
C842        O875   1.270       .  A
C842        O872   1.270       .  A
O843       Mn850   2.163       .  S
O843       Mn861   2.133       .  S
O843       Mn865   2.163       .  S
O844       Mn878   2.093       .  S
O844        C854   1.270       .  A
O845       Mn861   2.094       .  S
O845        C868   1.270       .  A
O846       Mn865   2.096       .  S
O846        C873   1.250       .  A
O847       Mn867   1.964       .  S
O847        C863   1.218       .  S
C848        C888   1.435       .  S
C848        O851   1.251       .  A
C848        O874   1.218       .  S
O849       Mn850   2.163       .  S
O849       Mn883   2.133       .  S
O849       Mn865   2.163       .  S
Mn850       O855   2.096       .  S
O852       Mn859   2.092       .  S
O852        C854   1.270       .  A
C853        C893   1.435       .  S
C853        O879   1.250       .  A
C853        O866   1.218       .  S
C854        C911   1.434       .  S
O855        C880   1.250       .  A
O856       Mn859   2.133       .  S
O856       Mn878   2.133       .  S
O857       Mn861   1.964       .  S
O857       Mn883   1.964       .  S
O857        C880   1.218       .  S
C858        C899   1.436       .  S
C858        O860   1.270       .  A
Mn859       O872   2.093       .  S
O860       Mn883   2.094       .  S
Mn861       O877   2.094       .  S
Mn861       O871   1.964       .  S
O862       Mn867   2.094       .  S
C863        C900   1.435       .  S
C863        O881   1.250       .  A
C864        C894   1.436       .  S
C864        O877   1.270       .  A
O866       Mn869   1.964       .  S
Mn867       O885   1.964       .  S
C868        C891   1.435       .  S
Mn869       O876   2.094       .  S
Mn869       O884   2.094       .  S
Mn869       O874   1.964       .  S
C870        C902   1.435       .  S
C870        O886   1.270       .  A
O871       Mn883   1.964       .  S
O871        C873   1.218       .  S
C873        C908   1.434       .  S
O875       Mn878   2.092       .  S
C880        C913   1.434       .  S
O882        C887   1.251       .  A
Mn883       O886   2.094       .  S
O885        C887   1.218       .  S
C887        C905   1.435       .  S
C888        C889   1.206       .  T
C890        C891   1.206       .  T
C892        C893   1.206       .  T
C894        C895   1.206       .  T
C896        C965   1.439   1_554  S
C896        C897   1.205       .  T
C898        C899   1.206       .  T
C900        C901   1.206       .  T
C902        C903   1.206       .  T
C904        C905   1.206       .  T
C906        C907   1.205       .  T
C907        C949   1.439   1_554  S
C908        C909   1.206       .  T
C910        C911   1.206       .  T
C912        C913   1.206       .  T
C914        C915   1.206       .  T
C916        C931   1.438   1_554  S
C916        C917   1.205       .  T
C918        C919   1.401       .  A
C918        C923   1.401       .  A
C918       C1045   1.440       .  S
C919        C920   1.400       .  A
C919        H924   1.085       .  S
C920        C921   1.399       .  A
C920       C1043   1.440       .  S
C921        C922   1.402       .  A
C921        H925   1.085       .  S
C922        C923   1.403       .  A
C922       C1048   1.438       .  S
C923        H926   1.085       .  S
C927        C928   1.401       .  A
C927        C932   1.401       .  A
C927       C1041   1.440       .  S
C928        C929   1.400       .  A
C928        H933   1.085       .  S
C929        C930   1.399       .  A
C929       C1040   1.440       .  S
C930        C931   1.402       .  A
C930        H934   1.085       .  S
C931        C932   1.403       .  A
C932        H935   1.085       .  S
C936        C937   1.401       .  A
C936        C941   1.402       .  A
C936       C1034   1.441       .  S
C937        C938   1.401       .  A
C937        H942   1.085       .  S
C938        C939   1.400       .  A
C938       C1035   1.441       .  S
C939        C940   1.403       .  A
C939        H943   1.085       .  S
C940        C941   1.403       .  A
C940       C1037   1.439       .  S
C941        H944   1.084       .  S
C945        C946   1.401       .  A
C945        C950   1.402       .  A
C945       C1029   1.441       .  S
C946        C947   1.401       .  A
C946        H951   1.085       .  S
C947        C948   1.400       .  A
C947       C1032   1.441       .  S
C948        C949   1.403       .  A
C948        H952   1.085       .  S
C949        C950   1.403       .  A
C950        H953   1.084       .  S
C954        C955   1.401       .  A
C954        C959   1.402       .  A
C954       C1026   1.441       .  S
C955        C956   1.401       .  A
C955        H960   1.085       .  S
C956        C957   1.400       .  A
C956       C1023   1.441       .  S
C957        C958   1.403       .  A
C957        H961   1.085       .  S
C958        C959   1.403       .  A
C958       C1028   1.439       .  S
C959        H962   1.084       .  S
C963        C964   1.402       .  A
C963        C968   1.401       .  A
C963       C1021   1.441       .  S
C964        C965   1.403       .  A
C964        H969   1.084       .  S
C965        C966   1.403       .  A
C966        C967   1.400       .  A
C966        H970   1.085       .  S
C967        C968   1.401       .  A
C967       C1020   1.441       .  S
C968        H971   1.085       .  S
O972       Mn998   2.094       .  S
C973       C1046   1.434       .  S
C973       O1006   1.270       .  A
C973       O1003   1.270       .  A
O974       Mn981   2.163       .  S
O974       Mn992   2.133       .  S
O974       Mn996   2.163       .  S
O975      Mn1009   2.093       .  S
O975        C985   1.270       .  A
O976       Mn992   2.094       .  S
O976        C999   1.270       .  A
O977       Mn996   2.096       .  S
O977       C1004   1.250       .  A
O978       Mn998   1.964       .  S
O978        C994   1.218       .  S
C979       C1019   1.435       .  S
C979        O982   1.251       .  A
C979       O1005   1.218       .  S
O980       Mn981   2.163       .  S
O980      Mn1014   2.133       .  S
O980       Mn996   2.163       .  S
Mn981       O986   2.096       .  S
O983       Mn990   2.092       .  S
O983        C985   1.270       .  A
C984       C1024   1.435       .  S
C984       O1010   1.250       .  A
C984        O997   1.218       .  S
C985       C1042   1.434       .  S
O986       C1011   1.250       .  A
O987       Mn990   2.133       .  S
O987      Mn1009   2.133       .  S
O988       Mn992   1.964       .  S
O988      Mn1014   1.964       .  S
O988       C1011   1.218       .  S
C989       C1030   1.436       .  S
C989        O991   1.270       .  A
Mn990      O1003   2.093       .  S
O991      Mn1014   2.094       .  S
Mn992      O1008   2.094       .  S
Mn992      O1002   1.964       .  S
O993       Mn998   2.094       .  S
C994       C1031   1.435       .  S
C994       O1012   1.250       .  A
C995       C1025   1.436       .  S
C995       O1008   1.270       .  A
O997      Mn1000   1.964       .  S
Mn998      O1016   1.964       .  S
C999       C1022   1.435       .  S
Mn1000     O1007   2.094       .  S
Mn1000     O1015   2.094       .  S
Mn1000     O1005   1.964       .  S
C1001      C1033   1.435       .  S
C1001      O1017   1.270       .  A
O1002     Mn1014   1.964       .  S
O1002      C1004   1.218       .  S
C1004      C1039   1.434       .  S
O1006     Mn1009   2.092       .  S
C1011      C1044   1.434       .  S
O1013      C1018   1.251       .  A
Mn1014     O1017   2.094       .  S
O1016      C1018   1.218       .  S
C1018      C1036   1.435       .  S
C1019      C1020   1.206       .  T
C1021      C1022   1.206       .  T
C1023      C1024   1.206       .  T
C1025      C1026   1.206       .  T
C1027      C1028   1.205       .  T
C1029      C1030   1.206       .  T
C1031      C1032   1.206       .  T
C1033      C1034   1.206       .  T
C1035      C1036   1.206       .  T
C1037      C1038   1.205       .  T
C1039      C1040   1.206       .  T
C1041      C1042   1.206       .  T
C1043      C1044   1.206       .  T
C1045      C1046   1.206       .  T
C1047      C1048   1.205       .  T
