geometry optimzed in LAMMPS
_audit_creation_date              2020-11-30 
_audit_creation_method            'lammps2cif' 
_symmetry_space_group_name_H-M    'P1' 
_symmetry_Int_Tables_number       1 
_symmetry_cell_setting            triclinic 
loop_ 
_symmetry_equiv_pos_as_xyz 
  x,y,z 
_cell_length_a                    48.5385839 
_cell_length_b                    48.37345446452487 
_cell_length_c                    48.30996139469951 
_cell_angle_alpha                 89.9389168539785 
_cell_angle_beta                  89.8684217116027 
_cell_angle_gamma                 90.00599193830432 
loop_ 
_atom_site_label 
_atom_site_type_symbol 
_atom_site_fract_x 
_atom_site_fract_y 
_atom_site_fract_z 
_atom_site_charge 
O1          O  0.94261881  0.00457702  0.95094300    -0.78200
C2          C  0.02003593  0.96085818  0.93980464     0.82900
O3          O  0.96152617  0.96129787  0.03938317    -0.79300
O4          O  0.05511854  0.98942348  0.02121033    -0.80800
O5          O  0.01415772  0.06940505  0.97702167    -0.80600
O6          O  0.94765692  0.04870315  0.96250390    -0.79200
Zn7        Zn  0.97059666  0.98271821  0.97254254     1.55700
O8          O  0.04926636  0.03949938  0.97604329    -0.80600
Cd9        Cd  0.98073604  0.04580207  0.99004296     1.59700
Cd10       Cd  0.98684784  0.99569520  0.03564429     1.59600
O11         O  0.96923210  0.06330263  0.02746791    -0.80600
O12         O  0.99250944  0.00636891  0.99593834    -1.91100
Cd13       Cd  0.03254412  0.00164075  0.98660742     1.59900
O14         O  0.96994724  0.02808236  0.05737454    -0.80500
O15         O  0.03795317  0.97422418  0.95371527    -0.79200
C16         C  0.94856346  0.94790260  0.02080430     0.83300
C17         C  0.93529269  0.02978164  0.94894544     0.83000
O18         O  0.99441520  0.96258070  0.94523538    -0.78100
C19         C  0.03970114  0.06393411  0.97386122     0.83800
O20         O  0.95030620  0.95429931  0.99526705    -0.78200
C21         C  0.96628132  0.05354912  0.05181353     0.83900
C22         C  0.04904779  0.98696761  0.04682533     0.84300
O23         O  0.02422715  0.98864072  0.05534182    -0.80700
O24         O  0.00056320  0.29006154  0.30456655    -0.78200
C25         C  0.95166619  0.30183061  0.23077114     0.82900
O26         O  0.95862028  0.20222405  0.29327985    -0.79300
O27         O  0.97223053  0.22051203  0.19596264    -0.80800
O28         O  0.05763517  0.26554682  0.22557307    -0.80600
O29         O  0.04422506  0.28072901  0.29361920    -0.79200
Zn30       Zn  0.97660681  0.26878231  0.27841598     1.55700
O31         O  0.02481020  0.26249389  0.19347146    -0.80600
Cd32       Cd  0.03839519  0.25233369  0.26155829     1.59700
Cd33       Cd  0.98927415  0.20525096  0.26270873     1.59600
O34         O  0.05817807  0.21562507  0.27072455    -0.80600
O35         O  0.99830461  0.24507565  0.25491955    -1.91100
Cd36       Cd  0.98947411  0.25401626  0.21555223     1.59900
O37         O  0.02482312  0.18411566  0.27444067    -0.80500
O38         O  0.96398877  0.28796797  0.21211648    -0.79200
C39         C  0.94554794  0.22141857  0.30587167     0.83300
C40         C  0.02629219  0.29320486  0.30839088     0.83000
O41         O  0.95443062  0.29601532  0.25631453    -0.78100
C42         C  0.04972038  0.26665185  0.20044844     0.83800
O43         O  0.95058275  0.24682948  0.30146646    -0.78200
C44         C  0.05027022  0.19084925  0.27492023     0.83900
C45         C  0.97067684  0.19495503  0.20210873     0.84300
O46         O  0.97630484  0.18595526  0.22631189    -0.80700
O47         O  0.75111662  0.29627157  0.45345851    -0.78200
C48         C  0.79775121  0.30710146  0.52851819     0.82900
O49         O  0.79057388  0.20734142  0.46896083    -0.79300
O50         O  0.76848635  0.22685709  0.56476314    -0.80800
O51         O  0.68757887  0.27311453  0.52727910    -0.80600
O52         O  0.70677418  0.28649790  0.45936309    -0.79200
Zn53       Zn  0.77248547  0.27461095  0.48078650     1.55700
O54         O  0.71890555  0.27423166  0.56124870    -0.80600
Cd55       Cd  0.70917955  0.25892465  0.49271437     1.59700
Cd56       Cd  0.75752758  0.21186970  0.49643797     1.59600
O57         O  0.68985798  0.22227292  0.48079611    -0.80600
O58         O  0.74869906  0.25192027  0.50324335    -1.91100
Cd59       Cd  0.75571903  0.26182985  0.54307183     1.59900
O60         O  0.72324070  0.19052280  0.48199732    -0.80500
O61         O  0.78490204  0.29364246  0.54728161    -0.79200
C62         C  0.80415602  0.22593383  0.45606417     0.83300
C63         C  0.72608443  0.29899396  0.44642705     0.83000
O64         O  0.79455175  0.30165501  0.50298695    -0.78100
C65         C  0.69425525  0.27705392  0.55254802     0.83800
O66         O  0.79859540  0.25143571  0.45904295    -0.78200
C67         C  0.69823345  0.19744385  0.47784634     0.83900
C68         C  0.77085550  0.20140040  0.55818134     0.84300
O69         O  0.76735615  0.19297931  0.53345334    -0.77500
O70         O  0.79233448  0.00430098  0.79845429    -0.78200
C71         C  0.72572790  0.94190073  0.80112345     0.82900
O72         O  0.78586753  0.95675966  0.70925470    -0.79300
O73         O  0.68638102  0.97633868  0.72378026    -0.80800
O74         O  0.71090982  0.05416009  0.76867889    -0.80600
O75         O  0.77742625  0.04673103  0.78843016    -0.79200
Zn76       Zn  0.77060255  0.97765938  0.77527619     1.55700
O77         O  0.68453016  0.01741627  0.77710752    -0.80600
Cd78       Cd  0.74871362  0.03767889  0.75745442     1.59700
Cd79       Cd  0.75493280  0.98749231  0.71147677     1.59600
O80         O  0.76019269  0.05688958  0.72096195    -0.80600
O81         O  0.74577994  0.99692157  0.75097881    -1.91100
Cd82       Cd  0.70719152  0.98532390  0.75969079     1.59900
O83         O  0.76959402  0.02266935  0.69158827    -0.80500
O84         O  0.70680492  0.95107822  0.78537559    -0.79200
C85         C  0.80087704  0.94675044  0.72858445     0.83300
C86         C  0.79296444  0.03037218  0.80204163     0.83000
O87         O  0.74990754  0.95205912  0.80051673    -0.78100
C88         C  0.68815396  0.04353064  0.77650828     0.83800
O89         O  0.79698996  0.95366137  0.75373792    -0.78200
C90         C  0.76847093  0.04836555  0.69739584     0.83900
C91         C  0.69335050  0.97480905  0.69842670     0.84300
O92         O  0.71837834  0.97741891  0.69041526    -0.80700
O93         O  0.29979811  0.94853167  0.24565183    -0.78200
C94         C  0.30741614  0.02330821  0.29135830     0.82900
O95         O  0.21022087  0.95681154  0.28253974    -0.79300
O96         O  0.22681802  0.05672765  0.26356044    -0.80800
O97         O  0.27771155  0.02129691  0.18310790    -0.80600
O98         O  0.29030500  0.95398760  0.20092882    -0.79200
Zn99       Zn  0.27638137  0.97410603  0.26758720     1.55700
O100        O  0.27161667  0.05514821  0.21358708    -0.80600
Cd101      Cd  0.26185591  0.98675704  0.20370071     1.59700
Cd102      Cd  0.21395528  0.98819457  0.25279023     1.59600
O103        O  0.22481334  0.97838653  0.18315487    -0.80600
O104        O  0.25351685  0.99602311  0.24360053    -1.91100
Cd105      Cd  0.26152430  0.03606940  0.25034029     1.59900
O106        O  0.19312235  0.97802622  0.21682306    -0.80500
O107        O  0.29368720  0.04157679  0.27828218    -0.79200
C108        C  0.22883695  0.94490461  0.29691444     0.83300
C109        C  0.30347503  0.94200376  0.22045066     0.83000
O110        O  0.30223651  0.99765191  0.28914527    -0.78100
C111        C  0.27793842  0.04692079  0.18937045     0.83800
O112        O  0.25426807  0.95045814  0.29364730    -0.78200
C113        C  0.19977973  0.97666795  0.19129066     0.83900
C114        C  0.20199894  0.04936133  0.26788388     0.84300
O115        O  0.19425497  0.02419587  0.26613191    -0.80700
O116        O  0.05201100  0.54501146  0.49792803    -0.78200
C117        C  0.98378145  0.55121918  0.55381088     0.82900
O118        O  0.03875283  0.45293874  0.54203514    -0.79300
O119        O  0.94185734  0.47504687  0.52289868    -0.80800
O120        O  0.97560699  0.51557998  0.44010181    -0.80600
O121        O  0.04176310  0.53457971  0.45420373    -0.79200
Zn122      Zn  0.02902754  0.51995497  0.52233528     1.55700
O123        O  0.94470637  0.52197765  0.47382357    -0.80600
Cd124      Cd  0.01159417  0.50406575  0.46029863     1.59700
Cd125      Cd  0.00946675  0.45782449  0.51049860     1.59600
O126        O  0.02318897  0.46708092  0.44163559    -0.80600
O127        O  0.00377319  0.49790236  0.50080952    -1.91100
Cd128      Cd  0.96474566  0.50936354  0.50982625     1.59900
O129        O  0.02203079  0.43582688  0.47576219    -0.80500
O130        O  0.96386768  0.54070411  0.54009867    -0.79200
C131        C  0.05470503  0.47094232  0.55281516     0.83300
C132        C  0.05515009  0.54871938  0.47198391     0.83000
O133        O  0.00851182  0.54397010  0.54903835    -0.78100
C134        C  0.95129998  0.52157335  0.44821233     0.83800
O135        O  0.05366197  0.49630540  0.54582556    -0.78200
C136        C  0.02553078  0.44228826  0.45039346     0.83900
C137        C  0.94756998  0.44936544  0.52518878     0.84300
O138        O  0.97197454  0.44011126  0.52174830    -0.80700
O139        O  0.45353215  0.29884923  0.74873138    -0.78200
C140        C  0.44019564  0.22531851  0.79753209     0.82900
O141        O  0.53978484  0.28130346  0.79609034    -0.79300
O142        O  0.52000456  0.18630087  0.77089592    -0.80800
O143        O  0.48289733  0.22300127  0.68774282    -0.80600
O144        O  0.46402745  0.28979372  0.70478923    -0.79200
Zn145      Zn  0.47447160  0.27230742  0.77271743     1.55700
O146        O  0.47570364  0.19035340  0.71950615    -0.80600
Cd147      Cd  0.49304838  0.25809381  0.71035335     1.59700
Cd148      Cd  0.53682116  0.25489636  0.76194531     1.59600
O149        O  0.53030472  0.27140390  0.69410563    -0.80600
O150        O  0.49751245  0.24859459  0.75060264    -1.91100
Cd151      Cd  0.48614857  0.20894970  0.75690087     1.59900
O152        O  0.55934790  0.27239634  0.72951337    -0.80500
O153        O  0.45256821  0.20604182  0.78439654    -0.79200
C154        C  0.52101313  0.29535892  0.80809753     0.83300
C155        C  0.45106822  0.30391035  0.72297583     0.83000
O156        O  0.44752478  0.25035227  0.79460615    -0.78100
C157        C  0.47688356  0.19815088  0.69428648     0.83800
O158        O  0.49595476  0.29402379  0.80063179    -0.78200
C159        C  0.55414956  0.27638807  0.70396426     0.83900
C160        C  0.54547813  0.19225412  0.77388694     0.84300
O161        O  0.55460328  0.21689181  0.77118716    -0.80700
O162        O  0.79389906  0.75114408  0.94870941    -0.78200
C163        C  0.72118393  0.80064280  0.94960938     0.82900
O164        O  0.79338221  0.78728352  0.04103722    -0.79300
O165        O  0.69352387  0.77261254  0.03180848    -0.80800
O166        O  0.71969094  0.69028779  0.98155017    -0.80600
O167        O  0.78411995  0.70680782  0.95631050    -0.79200
Zn168      Zn  0.77177966  0.77361814  0.97538101     1.55700
O169        O  0.68815988  0.72344574  0.98614001    -0.80600
Cd170      Cd  0.75685176  0.71069488  0.98965239     1.59700
Cd171      Cd  0.76148821  0.75838681  0.03875226     1.59600
O172        O  0.77223978  0.69038278  0.02385779    -0.80600
O173        O  0.75034519  0.75044499  0.99955754    -1.91100
Cd174      Cd  0.71019323  0.75863197  0.99505268     1.59900
O175        O  0.77100125  0.72122263  0.05825502    -0.80500
O176        O  0.70359303  0.78726484  0.96390067    -0.79200
C177        C  0.80456122  0.80146922  0.02177220     0.83300
C178        C  0.79688316  0.72567248  0.94295371     0.83000
O179        O  0.74702029  0.79756027  0.95269829    -0.78100
C180        C  0.69461896  0.69827654  0.98215873     0.83800
O181        O  0.79796356  0.79780872  0.99655023    -0.78200
C182        C  0.77422432  0.69654208  0.04943255     0.83900
C183        C  0.70323784  0.77805125  0.05553412     0.84300
O184        O  0.72886817  0.77504806  0.06075679    -0.80700
O185        O  0.29773636  0.25475211  0.95534043    -0.78200
C186        C  0.22643335  0.30470264  0.94526442     0.82900
O187        O  0.28057125  0.29380494  0.04777669    -0.79300
O188        O  0.18659415  0.27777352  0.02393905    -0.80800
O189        O  0.21929048  0.19450292  0.97850927    -0.80600
O190        O  0.28487404  0.21080490  0.96049901    -0.79200
Zn191      Zn  0.27238833  0.27766796  0.97950114     1.55700
O192        O  0.18745091  0.22745014  0.98010308    -0.80600
Cd193      Cd  0.25496534  0.21457351  0.99122015     1.59700
Cd194      Cd  0.25290209  0.26165823  0.04050041     1.59600
O195        O  0.26739182  0.19406349  0.02686658    -0.80600
O196        O  0.24743758  0.25441930  0.00008204    -1.91100
Cd197      Cd  0.20842108  0.26333378  0.98986812     1.59900
O198        O  0.26592010  0.22618956  0.06013945    -0.80500
O199        O  0.20701366  0.29066619  0.95629522    -0.79200
C200        C  0.29560492  0.30707834  0.03064117     0.83300
C201        C  0.29994677  0.22922448  0.94914532     0.83000
O202        O  0.25113054  0.30233788  0.95377106    -0.78100
C203        C  0.19427835  0.20226626  0.97659197     0.83800
O204        O  0.29477922  0.30203512  0.00476049    -0.78200
C205        C  0.26979284  0.20142817  0.05209958     0.83900
C206        C  0.19182210  0.27660929  0.04979110     0.84300
O207        O  0.21567048  0.27065944  0.05895324    -0.80700
O208        O  0.75491923  0.44652457  0.29374283    -0.78200
C209        C  0.80632927  0.44457341  0.22062255     0.82900
O210        O  0.79499504  0.53730107  0.28571561    -0.79300
O211        O  0.77165715  0.52371575  0.18744680    -0.80800
O212        O  0.69401067  0.47564737  0.21887872    -0.80600
O213        O  0.71069833  0.45482279  0.28504135    -0.79200
Zn214      Zn  0.77717366  0.47114992  0.26966293     1.55700
O215        O  0.72741698  0.47238550  0.18743475    -0.80600
Cd216      Cd  0.71450023  0.48600252  0.25535711     1.59700
Cd217      Cd  0.76262446  0.53411815  0.25698834     1.59600
O218        O  0.69486817  0.52091967  0.27014590    -0.80600
O219        O  0.75419361  0.49458231  0.24748886    -1.91100
Cd220      Cd  0.76218956  0.48707193  0.20739602     1.59900
O221        O  0.72706831  0.55378947  0.27112805    -0.80500
O222        O  0.79399284  0.45872866  0.20217276    -0.79200
C223        C  0.80800991  0.51805340  0.29825448     0.83300
C224        C  0.72952595  0.44202244  0.29826635     0.83000
O225        O  0.80110571  0.44742957  0.24623790    -0.78100
C226        C  0.70204560  0.47100601  0.19412589     0.83800
O227        O  0.80225540  0.49276846  0.29411472    -0.78200
C228        C  0.70213402  0.54590105  0.27421922     0.83900
C229        C  0.77438550  0.54858931  0.19568434     0.84300
O230        O  0.77276449  0.55531132  0.22115482    -0.80700
O231        O  0.45325364  0.95175610  0.49471711    -0.78200
C232        C  0.45114416  0.01846440  0.43759725     0.82900
O233        O  0.54855968  0.95899829  0.46471057    -0.79300
O234        O  0.52759770  0.05592396  0.46335387    -0.80800
O235        O  0.47838734  0.03473732  0.54952059    -0.80600
O236        O  0.45351679  0.97012336  0.53697616    -0.79200
Zn237      Zn  0.48014390  0.97405512  0.47166216     1.55700
O238        O  0.48276073  0.06402256  0.51397474    -0.80600
Cd239      Cd  0.48744233  0.99622990  0.53330564     1.59700
Cd240      Cd  0.54095963  0.99274617  0.49139095     1.59600
O241        O  0.51886258  0.98082945  0.55788633    -0.80600
O242        O  0.50029914  0.00004994  0.49402308    -1.91100
Cd243      Cd  0.49256971  0.03847056  0.48064740     1.59900
O244        O  0.55598613  0.98356693  0.53079587    -0.80500
O245        O  0.46136726  0.03862002  0.45114473    -0.79200
C246        C  0.53173111  0.94412671  0.45081761     0.83300
C247        C  0.44398736  0.95299950  0.51939918     0.83000
O248        O  0.45785393  0.99358194  0.44281609    -0.78100
C249        C  0.47833726  0.05915318  0.53957455     0.83800
O250        O  0.50588395  0.94843061  0.45196120    -0.78200
C251        C  0.54482530  0.97894822  0.55434782     0.83900
C252        C  0.55318592  0.05106569  0.46637035     0.84300
O253        O  0.56148172  0.02848873  0.47742455    -0.80700
O254        O  0.00693366  0.69935636  0.70905991    -0.78200
C255        C  0.05395218  0.77506490  0.69997964     0.82900
O256        O  0.04238561  0.71426551  0.80016094    -0.79300
O257        O  0.02279559  0.81251543  0.77842172    -0.80800
O258        O  0.94292049  0.77449441  0.72989508    -0.80600
O259        O  0.96241195  0.70847104  0.71535538    -0.79200
Zn260      Zn  0.02798023  0.72705381  0.73218985     1.55700
O261        O  0.97294652  0.80925430  0.73212644    -0.80600
Cd262      Cd  0.96479314  0.74046626  0.74407195     1.59700
Cd263      Cd  0.01150000  0.74436839  0.79403065     1.59600
O264        O  0.94404570  0.72897150  0.77951244    -0.80600
O265        O  0.00384077  0.75058469  0.75347754    -1.91100
Cd266      Cd  0.01013106  0.79060421  0.74350900     1.59900
O267        O  0.97462158  0.73354812  0.81381713    -0.80500
O268        O  0.03953041  0.79400923  0.71146641    -0.79200
C269        C  0.05731209  0.70203576  0.78209596     0.83300
C270        C  0.98163664  0.69445667  0.70409458     0.83000
O271        O  0.05131757  0.74984226  0.70696751    -0.78100
C272        C  0.94860165  0.80017705  0.72799781     0.83800
O273        O  0.05368338  0.70579182  0.75632343    -0.78200
C274        C  0.95026449  0.72852980  0.80510031     0.83900
C275        C  0.02698252  0.80611726  0.80373668     0.84300
O276        O  0.02452765  0.78123683  0.81220366    -0.80700
O277        O  0.46256996  0.79985580  0.25587950    -0.78200
C278        C  0.45764310  0.72928052  0.30925961     0.82900
O279        O  0.55596540  0.78829554  0.29031358    -0.79300
O280        O  0.53695450  0.69090140  0.27828467    -0.80800
O281        O  0.48513656  0.71913614  0.19796066    -0.80600
O282        O  0.46616312  0.78639276  0.21207110    -0.79200
Zn283      Zn  0.48774477  0.77571509  0.27850816     1.55700
O284        O  0.48666636  0.68877791  0.23270235    -0.80600
Cd285      Cd  0.49726032  0.75642706  0.21568276     1.59700
Cd286      Cd  0.54864909  0.75837874  0.26031809     1.59600
O287        O  0.53107466  0.76925074  0.19273749    -0.80600
O288        O  0.50837311  0.75050663  0.25539462    -1.91100
Cd289      Cd  0.50072535  0.71107760  0.26659119     1.59900
O290        O  0.56569392  0.77116226  0.22313003    -0.80500
O291        O  0.47064021  0.70948478  0.29762082    -0.79200
C292        C  0.53891389  0.80285832  0.30408435     0.83300
C293        C  0.45550291  0.80192974  0.23059274     0.83000
O294        O  0.46288688  0.75450083  0.30388779    -0.78100
C295        C  0.48253522  0.69456142  0.20727936     0.83800
O296        O  0.51294187  0.80015791  0.30121500    -0.78200
C297        C  0.55629095  0.77364272  0.19863045     0.83900
C298        C  0.56222951  0.69824032  0.27764949     0.84300
O299        O  0.56944178  0.72284501  0.27158238    -0.80700
O300        O  0.20409070  0.75215915  0.54962927    -0.78200
C301        C  0.20027873  0.69492094  0.47701773     0.82900
O302        O  0.29437610  0.71770571  0.53944785    -0.79300
O303        O  0.28012988  0.73006236  0.44144092    -0.80800
O304        O  0.22438866  0.80758953  0.46622921    -0.80600
O305        O  0.20742089  0.79582131  0.53532361    -0.79200
Zn306      Zn  0.22654521  0.72903701  0.52335171     1.55700
O307        O  0.22730754  0.77190652  0.43699172    -0.80600
Cd308      Cd  0.23702940  0.79152142  0.50408052     1.59700
Cd309      Cd  0.28863576  0.74824229  0.50946121     1.59600
O310        O  0.27046692  0.81557068  0.51541958    -0.80600
O311        O  0.24863842  0.75194841  0.49941064    -1.91100
Cd312      Cd  0.24265764  0.73921502  0.46029289     1.59900
O313        O  0.30499423  0.78590507  0.52223536    -0.80500
O314        O  0.21610929  0.70495412  0.45839343    -0.79200
C315        C  0.27657749  0.70203010  0.55097946     0.83300
C316        C  0.19793465  0.77764815  0.55199758     0.83000
O317        O  0.20107993  0.70418526  0.50167440    -0.78100
C318        C  0.22265806  0.79742014  0.44190900     0.83800
O319        O  0.25090388  0.70429677  0.54609922    -0.78200
C320        C  0.29543167  0.81047260  0.52173814     0.83900
C321        C  0.30503267  0.73186886  0.44962825     0.84300
O322        O  0.31120757  0.73803831  0.47450427    -0.80700
O323        O  0.30143795  0.45475679  0.74952204    -0.78200
C324        C  0.30450913  0.52707364  0.80091744     0.82900
O325        O  0.20852669  0.46285960  0.78426542    -0.79300
O326        O  0.22490498  0.56109744  0.77061466    -0.80800
O327        O  0.27537924  0.53126429  0.68870915    -0.80600
O328        O  0.29510925  0.46457454  0.70505070    -0.79200
Zn329      Zn  0.27582765  0.47893854  0.77165059     1.55700
O330        O  0.27214564  0.56314788  0.72204945    -0.80600
Cd331      Cd  0.26395387  0.49447643  0.70810296     1.59700
Cd332      Cd  0.21345165  0.49320123  0.75376953     1.59600
O333        O  0.22984636  0.48039923  0.68624733    -0.80600
O334        O  0.25359920  0.50195146  0.74782364    -1.91100
Cd335      Cd  0.26092932  0.54179227  0.75745265     1.59900
O336        O  0.19551544  0.47941354  0.71710625    -0.80500
O337        O  0.29197059  0.54591883  0.78736845    -0.79200
C338        C  0.22660179  0.45014740  0.79859982     0.83300
C339        C  0.30711673  0.45078009  0.72408317     0.83000
O340        O  0.29924985  0.50163591  0.79692481    -0.78100
C341        C  0.27646548  0.55632453  0.69692860     0.83800
O342        O  0.25226892  0.45458842  0.79555986    -0.78200
C343        C  0.20465490  0.47611890  0.69252927     0.83900
C344        C  0.19970344  0.55358454  0.77132438     0.84300
O345        O  0.19229943  0.52891322  0.76553584    -0.80700
O346        O  0.49081565  0.44843397  0.95901602    -0.78200
C347        C  0.44406499  0.44601658  0.03438520     0.82900
O348        O  0.45520252  0.54154741  0.96727343    -0.79300
O349        O  0.47695791  0.52628780  0.06587680    -0.80800
O350        O  0.55537797  0.47570027  0.02860363    -0.80600
O351        O  0.53522500  0.45880013  0.96239267    -0.79200
Zn352      Zn  0.46968848  0.47426038  0.98370744     1.55700
O353        O  0.52477329  0.47825150  0.06313546    -0.80600
Cd354      Cd  0.53348108  0.48880643  0.99394005     1.59700
Cd355      Cd  0.48623772  0.53742849  0.99688447     1.59600
O356        O  0.55402617  0.52498593  0.98267597    -0.80600
O357        O  0.49426049  0.49744716  0.00481985    -1.91100
Cd358      Cd  0.48799783  0.49013323  0.04529162     1.59900
O359        O  0.52223894  0.55808887  0.98604469    -0.80500
O360        O  0.45838561  0.45941609  0.05196691    -0.79200
C361        C  0.44086759  0.52307504  0.95509757     0.83300
C362        C  0.51573930  0.44454904  0.95176943     0.83000
O363        O  0.44638236  0.45035699  0.00848549    -0.78100
C364        C  0.54918581  0.47413114  0.05425590     0.83800
O365        O  0.44472311  0.49741474  0.95972819    -0.78200
C366        C  0.54712283  0.55045494  0.98227048     0.83900
C367        C  0.47316387  0.55113102  0.05784948     0.84300
O368        O  0.47443357  0.55803030  0.03243512    -0.80700
C369        C  0.41919571  0.53109421  0.93483705     0.01700
C370        C  0.42461017  0.55084024  0.91385128     0.04500
C371        C  0.40541456  0.55505503  0.89235551    -0.11600
C372        C  0.38086550  0.53956994  0.89157828     0.23800
C373        C  0.37454507  0.52134853  0.91343239    -0.12100
C374        C  0.39344936  0.51730323  0.93512178     0.05200
C375        C  0.36320903  0.53975733  0.86642537     0.27600
C376        C  0.34013388  0.55731369  0.86446787    -0.12800
C377        C  0.32153814  0.55454370  0.84217110     0.05700
C378        C  0.32600255  0.53402665  0.82175306    -0.08800
C379        C  0.35040555  0.51798670  0.82279402     0.06500
C380        C  0.36874163  0.52074250  0.84510994    -0.13200
Br381      Br  0.34034900  0.50092751  0.91282472    -0.05200
Br382      Br  0.45904925  0.57076231  0.91295518     0.00400
Br383      Br  0.28929186  0.57780696  0.84091657     0.00900
Br384      Br  0.40120194  0.49769989  0.84712700    -0.03600
Br385      Br  0.38350968  0.49312931  0.96545117     0.00900
Br386      Br  0.41316297  0.58100817  0.86301785    -0.02900
Br387      Br  0.33370496  0.58442297  0.89300311    -0.03700
Br388      Br  0.35937783  0.49235785  0.79340174     0.00300
C389        C  0.28112327  0.57852462  0.67637774     0.01700
C390        C  0.30573304  0.57972063  0.66085446     0.04500
C391        C  0.30938518  0.60053364  0.64070234    -0.11600
C392        C  0.28816966  0.61975688  0.63555285     0.23800
C393        C  0.26359478  0.61856621  0.65109606    -0.12100
C394        C  0.26018903  0.59824223  0.67165871     0.05200
C395        C  0.29048457  0.64007666  0.61255730     0.27600
C396        C  0.29811313  0.66769668  0.61792222    -0.12800
C397        C  0.29554007  0.68790550  0.59702932     0.05700
C398        C  0.28530266  0.68048610  0.57078666    -0.08800
C399        C  0.27974405  0.65251012  0.56486066     0.06500
C400        C  0.28210398  0.63238437  0.58574718    -0.13200
Br401      Br  0.23406257  0.64416646  0.64325175    -0.05200
Br402      Br  0.33450966  0.55307000  0.66748907     0.00400
Br403      Br  0.30407393  0.72603882  0.60491055     0.00900
Br404      Br  0.27207148  0.59452167  0.57823414    -0.03600
Br405      Br  0.22601309  0.59652543  0.69220996     0.00900
Br406      Br  0.34318808  0.60261233  0.61979739    -0.02900
Br407      Br  0.31039386  0.67801643  0.65439812    -0.03700
Br408      Br  0.26873441  0.64184486  0.52804099     0.00300
C409        C  0.47587950  0.67179967  0.18768566     0.01700
C410        C  0.45483821  0.67500121  0.16772906     0.04500
C411        C  0.45093594  0.65477232  0.14709520    -0.11600
C412        C  0.46732230  0.63073758  0.14683799     0.23800
C413        C  0.48693224  0.62653456  0.16788444    -0.12100
C414        C  0.49184419  0.64728094  0.18770487     0.05200
C415        C  0.46675972  0.61164931  0.12267334     0.27600
C416        C  0.44660462  0.59075405  0.12038903    -0.12800
C417        C  0.44776634  0.57170809  0.09830687     0.05700
C418        C  0.46943799  0.57305867  0.07887388    -0.08800
C419        C  0.48903639  0.59458073  0.08066194     0.06500
C420        C  0.48754005  0.61389386  0.10234834    -0.13200
Br421      Br  0.50798347  0.59263518  0.16859690    -0.05200
Br422      Br  0.43108186  0.70694573  0.16859583     0.00400
Br423      Br  0.41915060  0.54444227  0.09390730     0.00900
Br424      Br  0.51458481  0.64312217  0.10480949    -0.03600
Br425      Br  0.52271352  0.64306188  0.21259571     0.00900
Br426      Br  0.42395706  0.66045402  0.11838250    -0.02900
Br427      Br  0.41793670  0.58778159  0.14789875    -0.03700
Br428      Br  0.51912829  0.59683209  0.05444450     0.00300
C429        C  0.43478441  0.72353507  0.32864299     0.01700
C430        C  0.40806256  0.73276920  0.32182345     0.04500
C431        C  0.38674578  0.73141684  0.34152148    -0.11600
C432        C  0.39205984  0.72105635  0.36823744     0.23800
C433        C  0.41846500  0.71077575  0.37474030    -0.12100
C434        C  0.43977647  0.71178491  0.35486099     0.05200
C435        C  0.37038723  0.72303217  0.38992803     0.27600
C436        C  0.36737894  0.74778707  0.40496913    -0.12800
C437        C  0.34611593  0.75047547  0.42461171     0.05700
C438        C  0.32762108  0.72839298  0.42929975    -0.08800
C439        C  0.33049423  0.70368851  0.41405128     0.06500
C440        C  0.35202173  0.70093636  0.39458833    -0.13200
Br441      Br  0.42564426  0.69672535  0.41137884    -0.05200
Br442      Br  0.40071610  0.74759445  0.28540702     0.00400
Br443      Br  0.34132384  0.78523970  0.44373731     0.00900
Br444      Br  0.35641859  0.66704825  0.37407511    -0.03600
Br445      Br  0.47616343  0.69877181  0.36408517     0.00900
Br446      Br  0.35044644  0.74488458  0.33238683    -0.02900
Br447      Br  0.39214994  0.77829232  0.39806942    -0.03700
Br448      Br  0.30523001  0.67349492  0.42007292     0.00300
C449        C  0.07431043  0.78155191  0.67770812     0.01700
C450        C  0.09279077  0.80412275  0.67989501     0.04500
C451        C  0.11390854  0.80777703  0.66001480    -0.11600
C452        C  0.11725086  0.78851562  0.63840436     0.23800
C453        C  0.09887018  0.76614540  0.63612590    -0.12100
C454        C  0.07699015  0.76318850  0.65500260     0.05200
C455        C  0.13998716  0.79121478  0.61782104     0.27600
C456        C  0.13444976  0.80183465  0.59120561    -0.12800
C457        C  0.15400870  0.79892603  0.56976843     0.05700
C458        C  0.17939953  0.78575074  0.57504400    -0.08800
C459        C  0.18589233  0.77754803  0.60234013     0.06500
C460        C  0.16608886  0.77985199  0.62356067    -0.13200
Br461      Br  0.10443544  0.73876921  0.60753322    -0.05200
Br462      Br  0.09063073  0.82923473  0.71076890     0.00400
Br463      Br  0.14495061  0.81087853  0.53279764     0.00900
Br464      Br  0.17401267  0.76575685  0.66006928    -0.03600
Br465      Br  0.05004850  0.73441330  0.64852151     0.00900
Br466      Br  0.13886885  0.83869859  0.66261765    -0.02900
Br467      Br  0.09922599  0.81875751  0.58389306    -0.03700
Br468      Br  0.22210359  0.76325318  0.61070097     0.00300
C469        C  0.17827008  0.57456188  0.77783653     0.01700
C470        C  0.17981720  0.59054421  0.80226066     0.04500
C471        C  0.16025373  0.61152979  0.80741861    -0.11600
C472        C  0.13906515  0.61672987  0.78821460     0.23800
C473        C  0.13723317  0.60051672  0.76404431    -0.12100
C474        C  0.15683586  0.57968198  0.75874124     0.05200
C475        C  0.11971671  0.64037153  0.79213526     0.27600
C476        C  0.09355611  0.63624611  0.80424770    -0.12800
C477        C  0.07353029  0.65741631  0.80329273     0.05700
C478        C  0.07966979  0.68278662  0.79023761    -0.08800
C479        C  0.10666547  0.68767910  0.78041233     0.06500
C480        C  0.12657538  0.66652960  0.78127145    -0.13200
Br481      Br  0.10815525  0.60754440  0.73773325    -0.05200
Br482      Br  0.20850513  0.58350573  0.82890672     0.00400
Br483      Br  0.03707751  0.65084564  0.81778308     0.00900
Br484      Br  0.16288775  0.67280202  0.76614476    -0.03600
Br485      Br  0.15549698  0.55981878  0.72407444     0.00900
Br486      Br  0.16255900  0.63356587  0.84055778    -0.02900
Br487      Br  0.08485605  0.60102276  0.82076114    -0.03700
Br488      Br  0.11619599  0.72336021  0.76518683     0.00300
C489        C  0.54907518  0.82376494  0.32388390     0.01700
C490        C  0.54431743  0.85194017  0.31850962     0.04500
C491        C  0.54680522  0.87149395  0.33987657    -0.11600
C492        C  0.55648780  0.86322353  0.36613220     0.23800
C493        C  0.56548453  0.83575022  0.37004805    -0.12100
C494        C  0.56073460  0.81576877  0.34935378     0.05200
C495        C  0.55322882  0.88205876  0.39032863     0.27600
C496        C  0.57079476  0.90493025  0.39418714    -0.12800
C497        C  0.56483509  0.92477617  0.41482518     0.05700
C498        C  0.54161998  0.92136395  0.43235471    -0.08800
C499        C  0.52575883  0.89686454  0.43000510     0.06500
C500        C  0.53106303  0.87779894  0.40870222    -0.13200
Br501      Br  0.58299978  0.82548624  0.40431645    -0.05200
Br502      Br  0.53505326  0.86359982  0.28158725     0.00400
Br503      Br  0.58760354  0.95731381  0.41732152     0.00900
Br504      Br  0.50685126  0.84638943  0.40378099    -0.03600
Br505      Br  0.56807090  0.77729717  0.35669501     0.00900
Br506      Br  0.53491332  0.90903733  0.33361954    -0.02900
Br507      Br  0.60253766  0.90931899  0.37048210    -0.03700
Br508      Br  0.49692717  0.88849914  0.45629730     0.00300
C509        C  0.42192691  0.93350052  0.52756004     0.01700
C510        C  0.42727666  0.90489767  0.52698108     0.04500
C511        C  0.40554190  0.88583203  0.52949960    -0.11600
C512        C  0.37844027  0.89526621  0.53419027     0.23800
C513        C  0.37353760  0.92381149  0.53768471    -0.12100
C514        C  0.39511563  0.94297399  0.53369919     0.05200
C515        C  0.35501159  0.87542596  0.53268637     0.27600
C516        C  0.33918426  0.87396113  0.50828713    -0.12800
C517        C  0.31835532  0.85390841  0.50566047     0.05700
C518        C  0.31439813  0.83395821  0.52669574    -0.08800
C519        C  0.32986882  0.83573524  0.55133825     0.06500
C520        C  0.34955075  0.85694809  0.55462978    -0.13200
Br521      Br  0.33704038  0.93647276  0.54715509    -0.05200
Br522      Br  0.46465656  0.89192453  0.52343964     0.00400
Br523      Br  0.29624056  0.85315937  0.47242144     0.00900
Br524      Br  0.36919142  0.86079754  0.58906624    -0.03600
Br525      Br  0.38754357  0.98208755  0.53477577     0.00900
Br526      Br  0.41277606  0.84685584  0.52504543    -0.02900
Br527      Br  0.34710938  0.89851660  0.47770839    -0.03700
Br528      Br  0.32379565  0.80941494  0.58074205     0.00300
C529        C  0.68116248  0.46556347  0.17214057     0.01700
C530        C  0.65753819  0.44925032  0.17776738     0.04500
C531        C  0.63616372  0.44727872  0.15812331    -0.11600
C532        C  0.63822039  0.46136288  0.13270797     0.23800
C533        C  0.66221665  0.47641187  0.12635732    -0.12100
C534        C  0.68363915  0.47855816  0.14585198     0.05200
C535        C  0.61420980  0.46289402  0.11370534     0.27600
C536        C  0.61088617  0.44354194  0.09217132    -0.12800
C537        C  0.58948236  0.44685774  0.07272199     0.05700
C538        C  0.57130813  0.46955630  0.07483054    -0.08800
C539        C  0.57474294  0.48888137  0.09649825     0.06500
C540        C  0.59579042  0.48524843  0.11609356    -0.13200
Br541      Br  0.66483758  0.49545692  0.09123201    -0.05200
Br542      Br  0.65429341  0.42901306  0.21207367     0.00400
Br543      Br  0.58497115  0.42016985  0.04345812     0.00900
Br544      Br  0.59986312  0.51126972  0.14611638    -0.03600
Br545      Br  0.71507956  0.50140069  0.13656970     0.00900
Br546      Br  0.60341235  0.42612170  0.16621017    -0.02900
Br547      Br  0.63584079  0.41266258  0.08940664    -0.03700
Br548      Br  0.55231455  0.52191106  0.09810709     0.00300
C549        C  0.58410283  0.67727118  0.28232967     0.01700
C550        C  0.60574196  0.67457507  0.26281565     0.04500
C551        C  0.62583252  0.65390587  0.26613736    -0.11600
C552        C  0.62383021  0.63486680  0.28812116     0.23800
C553        C  0.60281134  0.63790067  0.30807546    -0.12100
C554        C  0.58313954  0.65923500  0.30536115     0.05200
C555        C  0.64210434  0.61015606  0.28804036     0.27600
C556        C  0.63644712  0.58847663  0.26946004    -0.12800
C557        C  0.65575874  0.56718245  0.26536456     0.05700
C558        C  0.68055625  0.56673765  0.28081293    -0.08800
C559        C  0.68525368  0.58751774  0.30083916     0.06500
C560        C  0.66633758  0.60944673  0.30402428    -0.13200
Br561      Br  0.60074733  0.61240727  0.33872837    -0.05200
Br562      Br  0.60673033  0.69723963  0.22981669     0.00400
Br563      Br  0.64888952  0.54045401  0.23639445     0.00900
Br564      Br  0.67414336  0.63924700  0.32930185    -0.03600
Br565      Br  0.55527208  0.66398424  0.33349846     0.00900
Br566      Br  0.65584907  0.65088528  0.23993675    -0.02900
Br567      Br  0.60260740  0.58892734  0.24840722    -0.03700
Br568      Br  0.71723296  0.58578639  0.32442554     0.00300
C569        C  0.22091846  0.32389300  0.92159535     0.01700
C570        C  0.24129925  0.32761165  0.90072465     0.04500
C571        C  0.23784800  0.34785183  0.88008933    -0.11600
C572        C  0.21360573  0.36373891  0.87909989     0.23800
C573        C  0.19232369  0.35868929  0.89827085    -0.12100
C574        C  0.19604419  0.33925434  0.91979188     0.05200
C575        C  0.21176094  0.38707517  0.85909205     0.27600
C576        C  0.21979949  0.41377505  0.86751811    -0.12800
C577        C  0.22297938  0.43496385  0.84779323     0.05700
C578        C  0.21814294  0.42957254  0.81955350    -0.08800
C579        C  0.20856883  0.40333900  0.81131820     0.06500
C580        C  0.20515819  0.38216599  0.83110966    -0.13200
Br581      Br  0.15825982  0.37899033  0.89502014    -0.05200
Br582      Br  0.27387866  0.30451475  0.89899526     0.00400
Br583      Br  0.23477635  0.47128180  0.85929313     0.00900
Br584      Br  0.19278254  0.34602250  0.81985387    -0.03600
Br585      Br  0.16744845  0.33555412  0.94740452     0.00900
Br586      Br  0.26681779  0.35447947  0.85332865    -0.02900
Br587      Br  0.22787654  0.42085824  0.90596609    -0.03700
Br588      Br  0.20250848  0.39576070  0.77264661     0.00300
C589        C  0.42427086  0.42452496  0.04361407     0.01700
C590        C  0.40226064  0.43113011  0.06160146     0.04500
C591        C  0.38079863  0.41191230  0.06600981    -0.11600
C592        C  0.38119229  0.38619348  0.05231789     0.23800
C593        C  0.40430195  0.37874009  0.03627241    -0.12100
C594        C  0.42578795  0.39779118  0.03198053     0.05200
C595        C  0.35612800  0.36848819  0.05131800     0.27600
C596        C  0.35397381  0.34447699  0.06773250    -0.12800
C597        C  0.33318176  0.32480295  0.06224957     0.05700
C598        C  0.31435309  0.32931593  0.04037835    -0.08800
C599        C  0.31485788  0.35481440  0.02607236     0.06500
C600        C  0.33581966  0.37415285  0.03131949    -0.13200
Br601      Br  0.40574324  0.34283297  0.01887066    -0.05200
Br602      Br  0.40014298  0.46725223  0.07827322     0.00400
Br603      Br  0.33194585  0.29106213  0.08355315     0.00900
Br604      Br  0.33753665  0.40797596  0.01009035    -0.03600
Br605      Br  0.45728042  0.38722565  0.00985514     0.00900
Br606      Br  0.35005412  0.42115925  0.08957033    -0.02900
Br607      Br  0.38031478  0.33826394  0.09690183    -0.03700
Br608      Br  0.28648476  0.36366841  0.99947982     0.00300
C609        C  0.67206674  0.67766856  0.97999072     0.01700
C610        C  0.65143069  0.67673815  0.00073193     0.04500
C611        C  0.63014151  0.65702286  0.99929195    -0.11600
C612        C  0.62986010  0.63734202  0.97781675     0.23800
C613        C  0.65026402  0.63834442  0.95699894    -0.12100
C614        C  0.67107858  0.65869731  0.95784313     0.05200
C615        C  0.60895093  0.61475766  0.97803175     0.27600
C616        C  0.61297721  0.59144044  0.99502497    -0.12800
C617        C  0.59292640  0.57039506  0.99619873     0.05700
C618        C  0.56896045  0.57198448  0.97952342    -0.08800
C619        C  0.56509118  0.59541445  0.96239616     0.06500
C620        C  0.58483781  0.61684841  0.96198059    -0.13200
Br621      Br  0.64977981  0.61148607  0.92754299    -0.05200
Br622      Br  0.65313276  0.70116835  0.03237497     0.00400
Br623      Br  0.59751931  0.54087660  0.02284098     0.00900
Br624      Br  0.57858908  0.64965950  0.94014333    -0.03600
Br625      Br  0.69745120  0.66131259  0.92802891     0.00900
Br626      Br  0.60134935  0.65671264  0.02694533    -0.02900
Br627      Br  0.64584579  0.58887176  0.01740014    -0.03700
Br628      Br  0.53306784  0.59816516  0.93897227     0.00300
C629        C  0.57575853  0.78026886  0.17610532     0.01700
C630        C  0.59079179  0.80521646  0.17641951     0.04500
C631        C  0.61183837  0.80976603  0.15680552    -0.11600
C632        C  0.61771006  0.78943597  0.13679158     0.23800
C633        C  0.60185340  0.76505732  0.13572064    -0.12100
C634        C  0.58094471  0.76044189  0.15534488     0.05200
C635        C  0.64170736  0.79228371  0.11796347     0.27600
C636        C  0.63843520  0.80374757  0.09145522    -0.12800
C637        C  0.65965822  0.80137111  0.07168940     0.05700
C638        C  0.68404534  0.78644038  0.07815370    -0.08800
C639        C  0.68802075  0.77700721  0.10568278     0.06500
C640        C  0.66698105  0.78024819  0.12550639    -0.13200
Br641      Br  0.60976932  0.73739445  0.10798492    -0.05200
Br642      Br  0.58219578  0.83322714  0.20347702     0.00400
Br643      Br  0.65505323  0.81893662  0.03604354     0.00900
Br644      Br  0.67177632  0.76655533  0.16278886    -0.03600
Br645      Br  0.56079424  0.72599422  0.15486852     0.00900
Br646      Br  0.63326244  0.84330317  0.15775658    -0.02900
Br647      Br  0.60408265  0.82139401  0.08190417    -0.03700
Br648      Br  0.72091836  0.75724347  0.11669628     0.00300
C649        C  0.77803361  0.67375047  0.06962418     0.01700
C650        C  0.76155794  0.64964660  0.06736255     0.04500
C651        C  0.76377710  0.62844874  0.08713031    -0.11600
C652        C  0.78104793  0.63181124  0.11020393     0.23800
C653        C  0.79737211  0.65574225  0.11270816    -0.12100
C654        C  0.79634418  0.67643187  0.09217617     0.05200
C655        C  0.78037478  0.61103551  0.13277709     0.27600
C656        C  0.75938781  0.61237001  0.15291196    -0.12800
C657        C  0.75776121  0.59211757  0.17371913     0.05700
C658        C  0.77748575  0.57066574  0.17479255    -0.08800
C659        C  0.79864843  0.56949718  0.15475642     0.06500
C660        C  0.79989123  0.58950443  0.13359085    -0.13200
Br661      Br  0.82037911  0.66040420  0.14488390    -0.05200
Br662      Br  0.73355238  0.64640787  0.03907665     0.00400
Br663      Br  0.72714299  0.59275895  0.19941732     0.00900
Br664      Br  0.82767067  0.58704770  0.10509306    -0.03600
Br665      Br  0.82046704  0.70801367  0.09488183     0.00900
Br666      Br  0.74243541  0.59495660  0.08321255    -0.02900
Br667      Br  0.73226260  0.64154833  0.15131367    -0.03700
Br668      Br  0.82632886  0.54096385  0.15668074     0.00300
C669        C  0.81610146  0.71853298  0.92027379     0.01700
C670        C  0.81257476  0.73076164  0.89395990     0.04500
C671        C  0.83350702  0.72874275  0.87388132    -0.11600
C672        C  0.85829924  0.71498842  0.88019116     0.23800
C673        C  0.86116895  0.70131529  0.90580648    -0.12100
C674        C  0.83999429  0.70286960  0.92575445     0.05200
C675        C  0.88233249  0.71769821  0.86127510     0.27600
C676        C  0.88939999  0.69630601  0.84278066    -0.12800
C677        C  0.91248668  0.69920316  0.82523111     0.05700
C678        C  0.92778697  0.72399780  0.82526870    -0.08800
C679        C  0.91972245  0.74587747  0.84275010     0.06500
C680        C  0.89777037  0.74237460  0.86141888    -0.13200
Br681      Br  0.89499280  0.68216657  0.91421388    -0.05200
Br682      Br  0.77929057  0.75095873  0.88560482     0.00400
Br683      Br  0.92313729  0.66932534  0.80108268     0.00900
Br684      Br  0.88841730  0.77170859  0.88688294    -0.03600
Br685      Br  0.84492943  0.68569705  0.96146020     0.00900
Br686      Br  0.82897332  0.74609830  0.83816338    -0.02900
Br687      Br  0.86675164  0.66363990  0.84082373    -0.03700
Br688      Br  0.93647212  0.78180062  0.83884164     0.00300
C689        C  0.52797244  0.31430073  0.83102253     0.01700
C690        C  0.54063277  0.33986868  0.82525034     0.04500
C691        C  0.54264926  0.36013858  0.84607725    -0.11600
C692        C  0.53151165  0.35514650  0.87261965     0.23800
C693        C  0.52030099  0.32894267  0.87883313    -0.12100
C694        C  0.51858553  0.30855097  0.85807292     0.05200
C695        C  0.52846324  0.37843332  0.89261681     0.27600
C696        C  0.54747872  0.38235381  0.91424119    -0.12800
C697        C  0.54399078  0.40432804  0.93321938     0.05700
C698        C  0.52147543  0.42282318  0.93047985    -0.08800
C699        C  0.50298609  0.41920281  0.90804192     0.06500
C700        C  0.50624872  0.39689577  0.88961638    -0.13200
Br701      Br  0.50601299  0.32154267  0.91539047    -0.05200
Br702      Br  0.55290427  0.34798996  0.78811463     0.00400
Br703      Br  0.56946812  0.40773866  0.96362522     0.00900
Br704      Br  0.47983443  0.39114517  0.86026417    -0.03600
Br705      Br  0.50264908  0.27291608  0.86634533     0.00900
Br706      Br  0.55928694  0.39542236  0.83794644    -0.02900
Br707      Br  0.57799916  0.35708337  0.91798822    -0.03700
Br708      Br  0.47359195  0.44535229  0.90121572     0.00300
C709        C  0.47445758  0.08246406  0.55895158     0.01700
C710        C  0.44972375  0.08503872  0.57405517     0.04500
C711        C  0.44770477  0.10438849  0.59576527    -0.11600
C712        C  0.47026377  0.12164215  0.60206917     0.23800
C713        C  0.49445518  0.12011808  0.58591112    -0.12100
C714        C  0.49669491  0.10035482  0.56465185     0.05200
C715        C  0.46942534  0.14027500  0.62659055     0.27600
C716        C  0.45687806  0.16645567  0.62486812    -0.12800
C717        C  0.45777609  0.18470508  0.64760206     0.05700
C718        C  0.47254267  0.17748225  0.67180698    -0.08800
C719        C  0.48498020  0.15098849  0.67345778     0.06500
C720        C  0.48271584  0.13228515  0.65122635    -0.13200
Br721      Br  0.52492760  0.14455530  0.59369388    -0.05200
Br722      Br  0.41862633  0.06205108  0.56474472     0.00400
Br723      Br  0.43791561  0.21921353  0.64557952     0.00900
Br724      Br  0.49858826  0.09573707  0.65401954    -0.03600
Br725      Br  0.53110887  0.09633749  0.54494988     0.00900
Br726      Br  0.41447313  0.10655126  0.61757073    -0.02900
Br727      Br  0.43936912  0.17762422  0.59082922    -0.03700
Br728      Br  0.50750088  0.14069192  0.70480561     0.00300
C729        C  0.41689206  0.21943805  0.81699447     0.01700
C730        C  0.39586594  0.23958527  0.82061531     0.04500
C731        C  0.37690923  0.23723520  0.84253352    -0.11600
C732        C  0.37722629  0.21387100  0.85985166     0.23800
C733        C  0.39623661  0.19246602  0.85479747    -0.12100
C734        C  0.41646553  0.19541430  0.83389810     0.05200
C735        C  0.35839651  0.21300952  0.88420172     0.27600
C736        C  0.36735168  0.22375691  0.90975503    -0.12800
C737        C  0.34842311  0.22771876  0.93151608     0.05700
C738        C  0.32036306  0.22116755  0.92779535    -0.08800
C739        C  0.31165830  0.20907496  0.90268636     0.06500
C740        C  0.33070485  0.20486416  0.88100203    -0.13200
Br741      Br  0.39478490  0.15947100  0.87720476    -0.05200
Br742      Br  0.39178609  0.27036324  0.79525321     0.00400
Br743      Br  0.36091518  0.24225076  0.96649716     0.00900
Br744      Br  0.31877614  0.18930047  0.84628677    -0.03600
Br745      Br  0.44436001  0.16717584  0.83032187     0.00900
Br746      Br  0.35105758  0.26679817  0.84979369    -0.02900
Br747      Br  0.40537130  0.23443510  0.91434125    -0.03700
Br748      Br  0.27325775  0.20050592  0.89699734     0.00300
C749        C  0.43312263  0.32743434  0.71477900     0.01700
C750        C  0.41160298  0.32411952  0.69537980     0.04500
C751        C  0.39215915  0.34550674  0.69145572    -0.11600
C752        C  0.39388329  0.37001599  0.70714410     0.23800
C753        C  0.41657105  0.37417620  0.72476401    -0.12100
C754        C  0.43614933  0.35306591  0.72850925     0.05200
C755        C  0.37015226  0.38954836  0.70847816     0.27600
C756        C  0.37010043  0.41437746  0.69318740    -0.12800
C757        C  0.34927551  0.43433076  0.69766799     0.05700
C758        C  0.32790912  0.42917208  0.71703215    -0.08800
C759        C  0.32724979  0.40343573  0.73104627     0.06500
C760        C  0.34847799  0.38401379  0.72710212    -0.13200
Br761      Br  0.42003417  0.40845380  0.74488176    -0.05200
Br762      Br  0.40707378  0.28958791  0.67601074     0.00400
Br763      Br  0.35153908  0.46940677  0.67873209     0.00900
Br764      Br  0.34851621  0.34997092  0.74810045    -0.03600
Br765      Br  0.46712209  0.35940188  0.75280647     0.00900
Br766      Br  0.36232164  0.34101345  0.66555869    -0.02900
Br767      Br  0.39912671  0.42115843  0.66670734    -0.03700
Br768      Br  0.29689260  0.39400236  0.75529220     0.00300
C769        C  0.07466938  0.46308487  0.57466409     0.01700
C770        C  0.07380801  0.47694316  0.60036969     0.04500
C771        C  0.09523633  0.47347580  0.61960345    -0.11600
C772        C  0.11823098  0.45697267  0.61295022     0.23800
C773        C  0.11833260  0.44168515  0.58808678    -0.12100
C774        C  0.09631183  0.44436016  0.56917017     0.05200
C775        C  0.14326152  0.45886551  0.63068056     0.27600
C776        C  0.16033776  0.48234267  0.62828173    -0.12800
C777        C  0.18087818  0.48752017  0.64812362     0.05700
C778        C  0.18500196  0.46885987  0.67021473    -0.08800
C779        C  0.16914169  0.44441854  0.67158393     0.06500
C780        C  0.14820378  0.43949591  0.65193273    -0.13200
Br781      Br  0.14937890  0.41842901  0.57931646    -0.05200
Br782      Br  0.04345337  0.50127284  0.60914527     0.00400
Br783      Br  0.20162957  0.52157272  0.64629755     0.00900
Br784      Br  0.12566420  0.40678029  0.65455849    -0.03600
Br785      Br  0.09681465  0.42390751  0.53494968     0.00900
Br786      Br  0.09389660  0.49245393  0.65474230    -0.02900
Br787      Br  0.15455691  0.50817904  0.59834438    -0.03700
Br788      Br  0.17631335  0.41760353  0.70020509     0.00300
C789        C  0.83062262  0.52438657  0.31805557     0.01700
C790        C  0.82697153  0.54389298  0.33954726     0.04500
C791        C  0.84701438  0.54651235  0.36053717    -0.11600
C792        C  0.87082353  0.52983753  0.36013929     0.23800
C793        C  0.87523112  0.51150020  0.33796682    -0.12100
C794        C  0.85532336  0.50877888  0.31699567     0.05200
C795        C  0.89033345  0.52989251  0.38391908     0.27600
C796        C  0.91392013  0.54689058  0.38361498    -0.12800
C797        C  0.93345805  0.54506520  0.40515164     0.05700
C798        C  0.92956569  0.52606426  0.42706479    -0.08800
C799        C  0.90568967  0.50928969  0.42743133     0.06500
C800        C  0.88613367  0.51134731  0.40603845    -0.13200
Br801      Br  0.90834796  0.48937256  0.33696208    -0.05200
Br802      Br  0.79375722  0.56567580  0.34165887     0.00400
Br803      Br  0.96537996  0.56882384  0.40469868     0.00900
Br804      Br  0.85402877  0.48775628  0.40622891    -0.03600
Br805      Br  0.86241292  0.48366394  0.28664961     0.00900
Br806      Br  0.84150441  0.57210334  0.39062476    -0.02900
Br807      Br  0.91974051  0.57195104  0.35308347    -0.03700
Br808      Br  0.90073523  0.48152050  0.45582998     0.00300
C809        C  0.07493565  0.57025275  0.46285653     0.01700
C810        C  0.06892027  0.59835642  0.46768486     0.04500
C811        C  0.08972006  0.61851033  0.46498235    -0.11600
C812        C  0.11660252  0.61071828  0.45710110     0.23800
C813        C  0.12189957  0.58302976  0.44962611    -0.12100
C814        C  0.10112978  0.56279166  0.45264033     0.05200
C815        C  0.13976668  0.63068677  0.46074010     0.27600
C816        C  0.14804862  0.64849308  0.43921220    -0.12800
C817        C  0.16813839  0.66915618  0.44401331     0.05700
C818        C  0.18058932  0.67180634  0.47052373    -0.08800
C819        C  0.17332412  0.65239142  0.49146948     0.06500
C820        C  0.15269395  0.63249632  0.48669001    -0.13200
Br821      Br  0.15804859  0.57275688  0.43667188    -0.05200
Br822      Br  0.03214542  0.60911591  0.47829596     0.00400
Br823      Br  0.17707097  0.69422081  0.41415351     0.00900
Br824      Br  0.14145489  0.60772182  0.51609098    -0.03600
Br825      Br  0.10902750  0.52457561  0.44462564     0.00900
Br826      Br  0.08195286  0.65665183  0.47364063    -0.02900
Br827      Br  0.13127914  0.64463229  0.40325320    -0.03700
Br828      Br  0.19212879  0.65132894  0.52674680     0.00300
C829        C  0.97883872  0.57247576  0.57580801     0.01700
C830        C  0.99849750  0.59382859  0.58006219     0.04500
C831        C  0.99586341  0.61206384  0.60258354    -0.11600
C832        C  0.97265374  0.61073686  0.62001026     0.23800
C833        C  0.95227835  0.59058181  0.61518675    -0.12100
C834        C  0.95568557  0.57097512  0.59374759     0.05200
C835        C  0.97006813  0.63094074  0.64316437     0.27600
C836        C  0.97945756  0.62394457  0.66988372    -0.12800
C837        C  0.98192906  0.64453902  0.69036454     0.05700
C838        C  0.97481413  0.67215986  0.68429248    -0.08800
C839        C  0.96351274  0.67872813  0.65824607     0.06500
C840        C  0.96131948  0.65820647  0.63767901    -0.13200
Br841      Br  0.91973756  0.59000387  0.63817037    -0.05200
Br842      Br  0.02867352  0.59977153  0.55452137     0.00400
Br843      Br  0.99512647  0.63502918  0.72681332     0.00900
Br844      Br  0.94788196  0.66766589  0.60133942    -0.03600
Br845      Br  0.92938759  0.54120028  0.59069382     0.00900
Br846      Br  0.02446136  0.63889880  0.61001233    -0.02900
Br847      Br  0.99011835  0.58638293  0.67795796    -0.03700
Br848      Br  0.95279498  0.71625663  0.65009780     0.00300
C849        C  0.33061356  0.03126652  0.30921344     0.01700
C850        C  0.32585320  0.04472263  0.33460531     0.04500
C851        C  0.34725897  0.04678904  0.35410299    -0.11600
C852        C  0.37310120  0.03464151  0.34855057     0.23800
C853        C  0.37833904  0.02281224  0.32242660    -0.12100
C854        C  0.35719699  0.02148222  0.30265172     0.05200
C855        C  0.39323520  0.03104963  0.37132756     0.27600
C856        C  0.41615620  0.04869060  0.37381366    -0.12800
C857        C  0.43531963  0.04457067  0.39530987     0.05700
C858        C  0.43080854  0.02361319  0.41528785    -0.08800
C859        C  0.40725622  0.00648704  0.41308167     0.06500
C860        C  0.38913871  0.00962969  0.39066344    -0.13200
Br861      Br  0.41381371  0.00662941  0.31447410    -0.05200
Br862      Br  0.28942446  0.05774783  0.34379586     0.00400
Br863      Br  0.46857130  0.06647087  0.39592129     0.00900
Br864      Br  0.35887130  0.98407569  0.38593464    -0.03600
Br865      Br  0.36426206  0.00537748  0.26674160     0.00900
Br866      Br  0.34086552  0.06459572  0.38924568    -0.02900
Br867      Br  0.42128908  0.07826308  0.34747958    -0.03700
Br868      Br  0.39855714  0.97950631  0.44138841     0.00300
C869        C  0.28416615  0.06821236  0.16787034     0.01700
C870        C  0.27442934  0.06510686  0.14035593     0.04500
C871        C  0.27686058  0.08709951  0.12138015    -0.11600
C872        C  0.28670720  0.11298917  0.13017826     0.23800
C873        C  0.29690360  0.11611480  0.15720513    -0.12100
C874        C  0.29690302  0.09346867  0.17554785     0.05200
C875        C  0.28349553  0.13736086  0.11176400     0.27600
C876        C  0.30561481  0.14678634  0.09527648    -0.12800
C877        C  0.30134555  0.16806912  0.07581306     0.05700
C878        C  0.27511205  0.18014913  0.07316936    -0.08800
C879        C  0.25329651  0.17149769  0.09042104     0.06500
C880        C  0.25746556  0.15011587  0.10964438    -0.13200
Br881      Br  0.30907802  0.15200766  0.16961305    -0.05200
Br882      Br  0.25474589  0.03237991  0.12875561     0.00400
Br883      Br  0.33126630  0.18094630  0.05286585     0.00900
Br884      Br  0.22734142  0.13781662  0.13278426    -0.03600
Br885      Br  0.31499015  0.09736354  0.21093763     0.00900
Br886      Br  0.26522237  0.08252189  0.08342105    -0.02900
Br887      Br  0.34155093  0.13035773  0.09923586    -0.03700
Br888      Br  0.21728611  0.18818591  0.08686324     0.00300
C889        C  0.22126252  0.92372517  0.31781029     0.01700
C890        C  0.20788220  0.89910797  0.30971119     0.04500
C891        C  0.20341354  0.87774442  0.32914356    -0.11600
C892        C  0.21285497  0.88062660  0.35658331     0.23800
C893        C  0.22559979  0.90547088  0.36482362    -0.12100
C894        C  0.22981411  0.92691163  0.34554478     0.05200
C895        C  0.21244349  0.85674693  0.37610537     0.27600
C896        C  0.19272735  0.85527337  0.39754468    -0.12800
C897        C  0.19539968  0.83534281  0.41874239     0.05700
C898        C  0.21750930  0.81634954  0.41825035    -0.08800
C899        C  0.23658502  0.81717668  0.39604800     0.06500
C900        C  0.23399138  0.83725621  0.37510447    -0.13200
Br901      Br  0.23844954  0.90954856  0.40241622    -0.05200
Br902      Br  0.19829399  0.89342397  0.27139038     0.00400
Br903      Br  0.16898220  0.83441152  0.44863433     0.00900
Br904      Br  0.26108134  0.83925508  0.34578723    -0.03600
Br905      Br  0.24786179  0.96051602  0.35716254     0.00900
Br906      Br  0.18541274  0.84400377  0.31803713    -0.02900
Br907      Br  0.16264946  0.88129937  0.39821375    -0.03700
Br908      Br  0.26825505  0.79288845  0.39558277     0.00300
C909        C  0.32373270  0.91978421  0.21471532     0.01700
C910        C  0.34695457  0.92473358  0.19775729     0.04500
C911        C  0.36840131  0.90504918  0.19637775    -0.11600
C912        C  0.36725175  0.88089611  0.21277832     0.23800
C913        C  0.34386416  0.87579567  0.22935921    -0.12100
C914        C  0.32195189  0.89480716  0.22982098     0.05200
C915        C  0.39129031  0.86177601  0.21441532     0.27600
C916        C  0.39052710  0.83575058  0.20132659    -0.12800
C917        C  0.41160576  0.81619641  0.20611571     0.05700
C918        C  0.43430727  0.82301597  0.22313783    -0.08800
C919        C  0.43564139  0.84979236  0.23487931     0.06500
C920        C  0.41398763  0.86876065  0.23109559    -0.13200
Br921      Br  0.34263331  0.84355080  0.25296156    -0.05200
Br922      Br  0.35082522  0.95958638  0.17867900     0.00400
Br923      Br  0.40768341  0.77939129  0.19136711     0.00900
Br924      Br  0.41474530  0.90396267  0.25000376    -0.03600
Br925      Br  0.28945370  0.88663502  0.25157231     0.00900
Br926      Br  0.40006395  0.91167452  0.17308770    -0.02900
Br927      Br  0.35985893  0.82669940  0.17765619    -0.03700
Br928      Br  0.46736423  0.86118603  0.25584487     0.00300
C929        C  0.82354688  0.92659132  0.72242175     0.01700
C930        C  0.84907683  0.92881464  0.73650703     0.04500
C931        C  0.86927741  0.90805173  0.73391886    -0.11600
C932        C  0.86463889  0.88500583  0.71681953     0.23800
C933        C  0.84003256  0.88337198  0.70144951    -0.12100
C934        C  0.81946765  0.90393146  0.70430809     0.05200
C935        C  0.88478840  0.86163479  0.71698224     0.27600
C936        C  0.90888201  0.86264044  0.70064020    -0.12800
C937        C  0.92927709  0.84197134  0.70329734     0.05700
C938        C  0.92584624  0.82018997  0.72256681    -0.08800
C939        C  0.90114792  0.81875607  0.73823414     0.06500
C940        C  0.88079241  0.83935718  0.73537832    -0.13200
Br941      Br  0.83434397  0.85225953  0.67719602    -0.05200
Br942      Br  0.85722549  0.96057092  0.75914293     0.00400
Br943      Br  0.96157201  0.84321259  0.67994724     0.00900
Br944      Br  0.84778193  0.83794600  0.75777028    -0.03600
Br945      Br  0.78507966  0.89955450  0.68487005     0.00900
Br946      Br  0.90320063  0.91056442  0.75467140    -0.02900
Br947      Br  0.91419524  0.89292628  0.67520598    -0.03700
Br948      Br  0.89560636  0.78989926  0.76544409     0.00300
C949        C  0.56552008  0.16964155  0.77895469     0.01700
C950        C  0.58764299  0.16583254  0.76027776     0.04500
C951        C  0.60661217  0.14425908  0.76435329    -0.11600
C952        C  0.60360182  0.12611599  0.78698127     0.23800
C953        C  0.58172166  0.12990087  0.80581832    -0.12100
C954        C  0.56249198  0.15141738  0.80164593     0.05200
C955        C  0.62293986  0.10240479  0.78962076     0.27600
C956        C  0.61774611  0.07794489  0.77475473    -0.12800
C957        C  0.63871642  0.05811446  0.77128266     0.05700
C958        C  0.66488108  0.06225753  0.78353674    -0.08800
C959        C  0.66924134  0.08586139  0.80024955     0.06500
C960        C  0.64829254  0.10581760  0.80327571    -0.13200
Br961      Br  0.57839505  0.10561647  0.83730473    -0.05200
Br962      Br  0.59092669  0.18870342  0.72765945     0.00400
Br963      Br  0.63220479  0.02722319  0.74677714     0.00900
Br964      Br  0.65447974  0.13850456  0.82523770    -0.03600
Br965      Br  0.53222987  0.15600163  0.82715295     0.00900
Br966      Br  0.63668177  0.13911206  0.73855384    -0.02900
Br967      Br  0.58214219  0.07251886  0.75786706    -0.03700
Br968      Br  0.70404068  0.09139507  0.81866248     0.00300
C969        C  0.56284445  0.97236757  0.57845600     0.01700
C970        C  0.55822104  0.98492310  0.60461682     0.04500
C971        C  0.57788274  0.98210761  0.62590698    -0.11600
C972        C  0.60251792  0.96741346  0.62112366     0.23800
C973        C  0.60627518  0.95340292  0.59585339    -0.12100
C974        C  0.58625231  0.95530503  0.57487641     0.05200
C975        C  0.62559331  0.96899435  0.64137858     0.27600
C976        C  0.64174487  0.99320007  0.64263471    -0.12800
C977        C  0.66392462  0.99489944  0.66124483     0.05700
C978        C  0.67106765  0.97195902  0.67777365    -0.08800
C979        C  0.65472867  0.94787414  0.67684294     0.06500
C980        C  0.63182784  0.94650740  0.65893379    -0.13200
Br981      Br  0.63974706  0.93284019  0.58939365    -0.05200
Br982      Br  0.52623308  0.00784706  0.61131090     0.00400
Br983      Br  0.68278215  0.02964792  0.66600308     0.00900
Br984      Br  0.60854306  0.91421329  0.65891706    -0.03600
Br985      Br  0.59069648  0.93364094  0.54160203     0.00900
Br986      Br  0.57191805  0.99965940  0.66134136    -0.02900
Br987      Br  0.63322205  0.02430155  0.61901818    -0.03700
Br988      Br  0.66375591  0.91687282  0.70024974     0.00300
C989        C  0.71996533  0.91872088  0.82049702     0.01700
C990        C  0.69433444  0.91671518  0.83451465     0.04500
C991        C  0.69000234  0.89562001  0.85414728    -0.11600
C992        C  0.71151775  0.87740219  0.86093823     0.23800
C993        C  0.73673024  0.87875961  0.84657376    -0.12100
C994        C  0.74069766  0.89874978  0.82584012     0.05200
C995        C  0.70853352  0.85796175  0.88443347     0.27600
C996        C  0.71249151  0.86762998  0.91166765    -0.12800
C997        C  0.71400145  0.84872812  0.93366926     0.05700
C998        C  0.71199894  0.82023840  0.92841978    -0.08800
C999        C  0.70595830  0.81067364  0.90160680     0.06500
C1000       C  0.70417748  0.82957062  0.87955149    -0.13200
Br1001     Br  0.76626226  0.85362936  0.85600937    -0.05200
Br1002     Br  0.66551328  0.94366862  0.82885205     0.00400
Br1003     Br  0.71964637  0.86156864  0.97100690     0.00900
Br1004     Br  0.69758696  0.81655347  0.84242339    -0.03600
Br1005     Br  0.77435135  0.89747053  0.80424561     0.00900
Br1006     Br  0.65479195  0.89179618  0.87242623    -0.02900
Br1007     Br  0.71778443  0.90655433  0.91859562    -0.03700
Br1008     Br  0.70177184  0.77158322  0.89498220     0.00300
C1009       C  0.67795480  0.17558138  0.47116351     0.01700
C1010       C  0.66916620  0.15740764  0.49223809     0.04500
C1011       C  0.64918288  0.13710352  0.48666345    -0.11600
C1012       C  0.63801095  0.13454084  0.45987578     0.23800
C1013       C  0.64721203  0.15229706  0.43856997    -0.12100
C1014       C  0.66700963  0.17294346  0.44427232     0.05200
C1015       C  0.61546018  0.11414099  0.45514698     0.27600
C1016       C  0.62161642  0.08644175  0.44879415    -0.12800
C1017       C  0.60091490  0.06597009  0.45046243     0.05700
C1018       C  0.57372009  0.07306301  0.45864905    -0.08800
C1019       C  0.56711302  0.10160863  0.46186526     0.06500
C1020       C  0.58802743  0.12181821  0.46045482    -0.13200
Br1021     Br  0.63253286  0.14831704  0.40176050    -0.05200
Br1022     Br  0.68384965  0.16095701  0.52915426     0.00400
Br1023     Br  0.61014833  0.02846063  0.44056995     0.00900
Br1024     Br  0.57960528  0.16023604  0.46751214    -0.03600
Br1025     Br  0.67941925  0.19746483  0.41533808     0.00900
Br1026     Br  0.63646644  0.11306675  0.51597006    -0.02900
Br1027     Br  0.65884749  0.07666130  0.43874630    -0.03700
Br1028     Br  0.53003217  0.11414934  0.46963119     0.00300
C1029       C  0.81690096  0.32985061  0.53582909     0.01700
C1030       C  0.81233910  0.35656801  0.52494263     0.04500
C1031       C  0.83267513  0.37718508  0.52747969    -0.11600
C1032       C  0.85791340  0.37116942  0.54052652     0.23800
C1033       C  0.86183670  0.34503053  0.55289594    -0.12100
C1034       C  0.84136304  0.32440866  0.55059936     0.05200
C1035       C  0.88142816  0.39085698  0.53767933     0.27600
C1036       C  0.89803101  0.38966861  0.51374358    -0.12800
C1037       C  0.91941070  0.40893304  0.50976100     0.05700
C1038       C  0.92490024  0.42925047  0.52999778    -0.08800
C1039       C  0.90833993  0.43041553  0.55403328     0.06500
C1040       C  0.88660331  0.41129639  0.55782448    -0.13200
Br1041     Br  0.89601702  0.33710776  0.57153039    -0.05200
Br1042     Br  0.77841082  0.36474082  0.50579179     0.00400
Br1043     Br  0.93992181  0.40853952  0.47549803     0.00900
Br1044     Br  0.86370711  0.41308759  0.59040393    -0.03600
Br1045     Br  0.84797446  0.28796634  0.56539128     0.00900
Br1046     Br  0.82667194  0.41339341  0.51181892    -0.02900
Br1047     Br  0.89110031  0.36166670  0.48611787    -0.03700
Br1048     Br  0.91584907  0.45777532  0.58198717     0.00300
C1049       C  0.72244261  0.42163549  0.31992816     0.01700
C1050       C  0.73544490  0.42345961  0.34602475     0.04500
C1051       C  0.73207345  0.40222885  0.36555537    -0.11600
C1052       C  0.71522513  0.37935913  0.35945825     0.23800
C1053       C  0.70136951  0.37793152  0.33391668    -0.12100
C1054       C  0.70510158  0.39896337  0.31404720     0.05200
C1055       C  0.71433946  0.35594102  0.37922081     0.27600
C1056       C  0.73433817  0.33501784  0.37717764    -0.12800
C1057       C  0.73711017  0.31545111  0.39849332     0.05700
C1058       C  0.72007720  0.31700390  0.42233484    -0.08800
C1059       C  0.69918496  0.33731929  0.42368878     0.06500
C1060       C  0.69612013  0.35648220  0.40192346    -0.13200
Br1061     Br  0.67854811  0.34636154  0.32577850    -0.05200
Br1062     Br  0.75808587  0.45503328  0.35529784     0.00400
Br1063     Br  0.76473265  0.28682438  0.39471219     0.00900
Br1064     Br  0.66790304  0.38449795  0.40360157    -0.03600
Br1065     Br  0.68852554  0.39527378  0.27799419     0.00900
Br1066     Br  0.75184670  0.40359641  0.40022162    -0.02900
Br1067     Br  0.75897483  0.33425797  0.34567772    -0.03700
Br1068     Br  0.67669339  0.34112474  0.45645224     0.00300
C1069       C  0.67231389  0.28245300  0.57311504     0.01700
C1070       C  0.67064846  0.30792128  0.58719835     0.04500
C1071       C  0.65150032  0.31137418  0.60897789    -0.11600
C1072       C  0.63402981  0.28934047  0.61667505     0.23800
C1073       C  0.63516407  0.26421869  0.60197544    -0.12100
C1074       C  0.65427963  0.26076762  0.58036413     0.05200
C1075       C  0.61535608  0.29155993  0.64105162     0.27600
C1076       C  0.62348366  0.28018735  0.66658123    -0.12800
C1077       C  0.60423391  0.27711624  0.68828034     0.05700
C1078       C  0.57644009  0.28558813  0.68449254    -0.08800
C1079       C  0.56953887  0.30026658  0.66000475     0.06500
C1080       C  0.58866922  0.30245325  0.63811403    -0.13200
Br1081     Br  0.61102587  0.23411737  0.61217373    -0.05200
Br1082     Br  0.69445945  0.33797967  0.57645495     0.00400
Br1083     Br  0.61664454  0.26009192  0.72222760     0.00900
Br1084     Br  0.57791925  0.31886301  0.60334892    -0.03600
Br1085     Br  0.65697587  0.22554865  0.56185274     0.00900
Br1086     Br  0.64955023  0.34589833  0.62877514    -0.02900
Br1087     Br  0.66087430  0.26717037  0.67095016    -0.03700
Br1088     Br  0.53434139  0.31863241  0.65645438     0.00300
C1089       C  0.77647078  0.18056030  0.58000849     0.01700
C1090       C  0.79644475  0.15967582  0.57570377     0.04500
C1091       C  0.79956368  0.13817919  0.59514869    -0.11600
C1092       C  0.78231730  0.13699848  0.61859618     0.23800
C1093       C  0.76281253  0.15807305  0.62327085    -0.12100
C1094       C  0.76000077  0.17989818  0.60420473     0.05200
C1095       C  0.78287277  0.11259070  0.63728892     0.27600
C1096       C  0.76931777  0.08811511  0.62941248    -0.12800
C1097       C  0.76673269  0.06606806  0.64827200     0.05700
C1098       C  0.77593903  0.06918722  0.67594745    -0.08800
C1099       C  0.79043518  0.09349759  0.68340050     0.06500
C1100       C  0.79473583  0.11459657  0.66375292    -0.13200
Br1101     Br  0.73869632  0.15603947  0.65511141    -0.05200
Br1102     Br  0.81959621  0.16019902  0.54314260     0.00400
Br1103     Br  0.74917751  0.03249536  0.63578682     0.00900
Br1104     Br  0.81661934  0.14657438  0.67297052    -0.03600
Br1105     Br  0.73164080  0.20730346  0.61034595     0.00900
Br1106     Br  0.82688382  0.10973822  0.58942093    -0.02900
Br1107     Br  0.75287013  0.08547501  0.59308676    -0.03700
Br1108     Br  0.80454393  0.09841008  0.72046724     0.00300
C1109       C  0.18115930  0.07113534  0.27267694     0.01700
C1110       C  0.17645747  0.09107327  0.25182387     0.04500
C1111       C  0.15548560  0.11085593  0.25508115    -0.11600
C1112       C  0.13877990  0.11065098  0.27899211     0.23800
C1113       C  0.14403488  0.09132732  0.30024830    -0.12100
C1114       C  0.16528816  0.07166382  0.29712945     0.05200
C1115       C  0.11490179  0.12989671  0.28074588     0.27600
C1116       C  0.11684626  0.15472432  0.29583775    -0.12800
C1117       C  0.09497511  0.17391884  0.29541817     0.05700
C1118       C  0.07155409  0.16904902  0.27869184    -0.08800
C1119       C  0.06991251  0.14421059  0.26328909     0.06500
C1120       C  0.09104111  0.12436767  0.26514378    -0.13200
Br1121     Br  0.12181762  0.09157571  0.33337124    -0.05200
Br1122     Br  0.19767765  0.09045999  0.21789160     0.00400
Br1123     Br  0.09732424  0.20677635  0.31797630     0.00900
Br1124     Br  0.08799320  0.08988849  0.24520947    -0.03600
Br1125     Br  0.17334012  0.04601753  0.32659676     0.00900
Br1126     Br  0.14915187  0.13802106  0.22642978    -0.02900
Br1127     Br  0.15017212  0.16301185  0.31589937    -0.03700
Br1128     Br  0.04064601  0.13842524  0.23680917     0.00300
C1129       C  0.93366265  0.32527643  0.22282923     0.01700
C1130       C  0.91529002  0.32290618  0.20021875     0.04500
C1131       C  0.89695881  0.34458905  0.19413489    -0.11600
C1132       C  0.89557731  0.36782348  0.21155640     0.23800
C1133       C  0.91450361  0.37080203  0.23339032    -0.12100
C1134       C  0.93393431  0.34991182  0.23864276     0.05200
C1135       C  0.87161851  0.38669172  0.20981039     0.27600
C1136       C  0.87416579  0.41330082  0.19815055    -0.12800
C1137       C  0.85205686  0.43209074  0.19999733     0.05700
C1138       C  0.82726958  0.42395201  0.21293946    -0.08800
C1139       C  0.82409899  0.39662070  0.22254197     0.06500
C1140       C  0.84636785  0.37820965  0.22150191    -0.13200
Br1141     Br  0.91274634  0.40289575  0.25711492    -0.05200
Br1142     Br  0.91253652  0.28899705  0.17931260     0.00400
Br1143     Br  0.85652811  0.46949175  0.18687521     0.00900
Br1144     Br  0.84278477  0.34184211  0.23773780    -0.03600
Br1145     Br  0.96089701  0.35554030  0.26753993     0.00900
Br1146     Br  0.87241677  0.34206124  0.16283928    -0.02900
Br1147     Br  0.90833685  0.42424647  0.18089621    -0.03700
Br1148     Br  0.78912978  0.38442968  0.23736239     0.00300
C1149       C  0.16911342  0.27997402  0.06996262     0.01700
C1150       C  0.17210203  0.29761098  0.09304621     0.04500
C1151       C  0.15204756  0.29762853  0.11416636    -0.11600
C1152       C  0.12875129  0.28041196  0.11205758     0.23800
C1153       C  0.12509008  0.26376964  0.08847156    -0.12100
C1154       C  0.14552069  0.26295202  0.06782481     0.05200
C1155       C  0.10910904  0.27801838  0.13548919     0.27600
C1156       C  0.11213153  0.25624908  0.15465199    -0.12800
C1157       C  0.09257656  0.25257350  0.17582455     0.05700
C1158       C  0.07038923  0.27123652  0.17850270    -0.08800
C1159       C  0.06735035  0.29302863  0.15930751     0.06500
C1160       C  0.08671559  0.29638919  0.13781224    -0.13200
Br1161     Br  0.09233544  0.24136123  0.08504676    -0.05200
Br1162     Br  0.20373965  0.32159139  0.09594127     0.00400
Br1163     Br  0.09481841  0.22039061  0.19950726     0.00900
Br1164     Br  0.08249250  0.32579563  0.11117425    -0.03600
Br1165     Br  0.14247399  0.23591731  0.03852674     0.00900
Br1166     Br  0.15674160  0.32052135  0.14648902    -0.02900
Br1167     Br  0.14287795  0.23110416  0.15148364    -0.03700
Br1168     Br  0.03674088  0.31828779  0.16242674     0.00300
C1169       C  0.03492786  0.31241318  0.33041784     0.01700
C1170       C  0.04260354  0.33962593  0.32350802     0.04500
C1171       C  0.04519684  0.35972095  0.34439628    -0.11600
C1172       C  0.03983557  0.35274615  0.37225615     0.23800
C1173       C  0.03378144  0.32510474  0.37933870    -0.12100
C1174       C  0.03129387  0.30497720  0.35841502     0.05200
C1175       C  0.03654441  0.37517299  0.39307344     0.27600
C1176       C  0.05817300  0.38240120  0.41113415    -0.12800
C1177       C  0.05484312  0.40456834  0.42984847     0.05700
C1178       C  0.03012205  0.41987975  0.43011148    -0.08800
C1179       C  0.00866813  0.41278369  0.41180592     0.06500
C1180       C  0.01164567  0.39016034  0.39381317    -0.13200
Br1181     Br  0.02705881  0.31529161  0.41746293    -0.05200
Br1182     Br  0.04695731  0.34991924  0.28516142     0.00400
Br1183     Br  0.08442083  0.41475388  0.45434653     0.00900
Br1184     Br  0.98134797  0.37926322  0.37035469    -0.03600
Br1185     Br  0.02156139  0.26742704  0.36781009     0.00900
Br1186     Br  0.05401481  0.39741113  0.33474951    -0.02900
Br1187     Br  0.09224826  0.36197417  0.41006516    -0.03700
Br1188     Br  0.97488660  0.43388197  0.41153932     0.00300
C1189       C  0.82696833  0.21856309  0.43687210     0.01700
C1190       C  0.82409244  0.19704294  0.41724321     0.04500
C1191       C  0.84425300  0.19339569  0.39647920    -0.11600
C1192       C  0.86656145  0.21189772  0.39441778     0.23800
C1193       C  0.87004952  0.23260415  0.41454615    -0.12100
C1194       C  0.85089868  0.23531137  0.43622902     0.05200
C1195       C  0.88553091  0.21084860  0.37026398     0.27600
C1196       C  0.91137080  0.19776985  0.37247704    -0.12800
C1197       C  0.93069689  0.19992235  0.35075785     0.05700
C1198       C  0.92401824  0.21481613  0.32655209    -0.08800
C1199       C  0.89762263  0.22683100  0.32390540     0.06500
C1200       C  0.87849622  0.22493732  0.34574002    -0.13200
Br1201     Br  0.90045014  0.25822265  0.41158369    -0.05200
Br1202     Br  0.79175905  0.17381823  0.41700107     0.00400
Br1203     Br  0.96719985  0.18489066  0.35543193     0.00900
Br1204     Br  0.84307649  0.24287891  0.34270740    -0.03600
Br1205     Br  0.85817223  0.26164474  0.46545711     0.00900
Br1206     Br  0.84110917  0.16364118  0.37012555    -0.02900
Br1207     Br  0.92059731  0.17810528  0.40593596    -0.03700
Br1208     Br  0.88775585  0.24644544  0.29048711     0.00300
C1209       C  0.82534168  0.82319742  0.02831661     0.01700
C1210       C  0.84628097  0.81875538  0.04824980     0.04500
C1211       C  0.86711299  0.83875852  0.05214413    -0.11600
C1212       C  0.86766696  0.86275798  0.03565751     0.23800
C1213       C  0.84621917  0.86787207  0.01681104    -0.12100
C1214       C  0.82486839  0.84853975  0.01354877     0.05200
C1215       C  0.89133917  0.88220100  0.03663511     0.27600
C1216       C  0.88935953  0.90695410  0.05183904    -0.12800
C1217       C  0.90891648  0.92812100  0.04781797     0.05700
C1218       C  0.93066628  0.92440752  0.02869082    -0.08800
C1219       C  0.93380754  0.89871953  0.01519604     0.06500
C1220       C  0.91419541  0.87767616  0.01919680    -0.13200
Br1221     Br  0.84649261  0.90140558  0.99495567    -0.05200
Br1222     Br  0.84785683  0.78481354  0.06920763     0.00400
Br1223     Br  0.90421853  0.96301861  0.06657960     0.00900
Br1224     Br  0.91783087  0.84302341  0.99976258    -0.03600
Br1225     Br  0.79443631  0.85791539  0.98957723     0.00900
Br1226     Br  0.89521063  0.83345094  0.07980832    -0.02900
Br1227     Br  0.85888416  0.91222791  0.07697065    -0.03700
Br1228     Br  0.96490308  0.89235417  0.99097596     0.00300
C1229       C  0.05946650  0.08686499  0.97008668     0.01700
C1230       C  0.06222060  0.10678772  0.99125750     0.04500
C1231       C  0.08343511  0.12656633  0.98992674    -0.11600
C1232       C  0.10240968  0.12614255  0.96781717     0.23800
C1233       C  0.09947038  0.10653303  0.94646683    -0.12100
C1234       C  0.07787231  0.08708676  0.94745328     0.05200
C1235       C  0.12665364  0.14490247  0.96825358     0.27600
C1236       C  0.12576256  0.17063520  0.95471095    -0.12800
C1237       C  0.14861196  0.18857946  0.95578235     0.05700
C1238       C  0.17212847  0.18146541  0.97163760    -0.08800
C1239       C  0.17298198  0.15526611  0.98491989     0.06500
C1240       C  0.15043610  0.13704433  0.98287528    -0.13200
Br1241     Br  0.12600593  0.10551199  0.91670681    -0.05200
Br1242     Br  0.03872342  0.10533070  0.02360748     0.00400
Br1243     Br  0.14771820  0.22234030  0.93436600     0.00900
Br1244     Br  0.15145796  0.10141026  0.00101818    -0.03600
Br1245     Br  0.07351296  0.06071002  0.91787305     0.00900
Br1246     Br  0.08753408  0.15339581  0.01918643    -0.02900
Br1247     Br  0.09266944  0.18158616  0.93553922    -0.03700
Br1248     Br  0.20383509  0.14436018  0.00772455     0.00300
C1249       C  0.02863099  0.94243689  0.91684437     0.01700
C1250       C  0.01480766  0.94390710  0.89114982     0.04500
C1251       C  0.01873110  0.92310360  0.87115959    -0.11600
C1252       C  0.03694614  0.90105272  0.87647332     0.23800
C1253       C  0.05277114  0.90107030  0.90090882    -0.12100
C1254       C  0.04838754  0.92146447  0.92125472     0.05200
C1255       C  0.03656991  0.87604584  0.85852618     0.27600
C1256       C  0.02140668  0.85275606  0.86712370    -0.12800
C1257       C  0.02056741  0.82883175  0.85057354     0.05700
C1258       C  0.03315010  0.82871237  0.82400280    -0.08800
C1259       C  0.04943102  0.85176968  0.81609583     0.06500
C1260       C  0.05128341  0.87520137  0.83341037    -0.13200
Br1261     Br  0.07919977  0.87193302  0.90708362    -0.05200
Br1262     Br  0.99026284  0.97438993  0.88330381     0.00400
Br1263     Br  0.00206877  0.79670532  0.86529584     0.00900
Br1264     Br  0.07379624  0.90636294  0.82282447    -0.03600
Br1265     Br  0.06743809  0.91871990  0.95616925     0.00900
Br1266     Br  0.99796020  0.92394188  0.83714646    -0.02900
Br1267     Br  0.00068126  0.85421306  0.90138052    -0.03700
Br1268     Br  0.07087824  0.85083246  0.78246498     0.00300
C1269       C  0.17732808  0.97582115  0.17040807     0.01700
C1270       C  0.15652220  0.99633571  0.17115390     0.04500
C1271       C  0.13595505  0.99707744  0.15066783    -0.11600
C1272       C  0.13600891  0.97754976  0.12906131     0.23800
C1273       C  0.15662212  0.95698896  0.12827430    -0.12100
C1274       C  0.17712625  0.95599804  0.14897507     0.05200
C1275       C  0.11431099  0.97886621  0.10725384     0.27600
C1276       C  0.09056217  0.96222206  0.10934551    -0.12800
C1277       C  0.06946675  0.96426988  0.08936829     0.05700
C1278       C  0.07165987  0.98357640  0.06741672    -0.08800
C1279       C  0.09514355  0.00093432  0.06601659     0.06500
C1280       C  0.11664260  0.99801522  0.08537622    -0.13200
Br1281     Br  0.15682446  0.93046113  0.09851272    -0.05200
Br1282     Br  0.15676565  0.02469735  0.19934091     0.00400
Br1283     Br  0.03783964  0.94023323  0.09222563     0.00900
Br1284     Br  0.14924013  0.02072090  0.08236958    -0.03600
Br1285     Br  0.20412037  0.92676176  0.14863888     0.00900
Br1286     Br  0.10777275  0.02525555  0.15188825    -0.02900
Br1287     Br  0.08678816  0.93709610  0.14019006    -0.03700
Br1288     Br  0.09686479  0.03090236  0.03952283     0.00300
C1289       C  0.91173314  0.03669369  0.93039239     0.01700
C1290       C  0.91268555  0.05992165  0.91252859     0.04500
C1291       C  0.89128758  0.06457478  0.89333734    -0.11600
C1292       C  0.86976234  0.04522511  0.89052818     0.23800
C1293       C  0.86815285  0.02269498  0.90901296    -0.12100
C1294       C  0.88854652  0.01891234  0.92936061     0.05200
C1295       C  0.85043733  0.04687621  0.86660407     0.27600
C1296       C  0.82244748  0.05390086  0.87053713    -0.12800
C1297       C  0.80345101  0.05036545  0.84874477     0.05700
C1298       C  0.81265708  0.04118439  0.82264566    -0.08800
C1299       C  0.84102768  0.03775487  0.81784693     0.06500
C1300       C  0.85977485  0.03949222  0.83990657    -0.13200
Br1301     Br  0.83857713  0.99613568  0.90572823    -0.05200
Br1302     Br  0.94425556  0.08418320  0.91213216     0.00400
Br1303     Br  0.76471230  0.05641607  0.85502714     0.00900
Br1304     Br  0.89786002  0.02968362  0.83377242    -0.03600
Br1305     Br  0.88393135  0.98957831  0.95625034     0.00900
Br1306     Br  0.89163879  0.09710734  0.87015447    -0.02900
Br1307     Br  0.81005628  0.06720208  0.90605991    -0.03700
Br1308     Br  0.85402645  0.03114922  0.78073201     0.00300
C1309       C  0.96440867  0.17511071  0.17961219     0.01700
C1310       C  0.97923851  0.17696496  0.15438558     0.04500
C1311       C  0.97472043  0.15756138  0.13328025    -0.11600
C1312       C  0.95646500  0.13537179  0.13761335     0.23800
C1313       C  0.94138742  0.13354384  0.16248290    -0.12100
C1314       C  0.94506324  0.15357646  0.18334902     0.05200
C1315       C  0.95621644  0.11233951  0.11739388     0.27600
C1316       C  0.93666769  0.11145233  0.09587413    -0.12800
C1317       C  0.93905737  0.09142660  0.07480972     0.05700
C1318       C  0.96136698  0.07273362  0.07500207    -0.08800
C1319       C  0.98064907  0.07347439  0.09684475     0.06500
C1320       C  0.97762891  0.09274013  0.11829938    -0.13200
Br1321     Br  0.91658142  0.10289752  0.16814880    -0.05200
Br1322     Br  0.00813596  0.20411854  0.14939899     0.00400
Br1323     Br  0.91175883  0.08942860  0.04592827     0.00900
Br1324     Br  0.00356134  0.09307154  0.14858257    -0.03600
Br1325     Br  0.92337583  0.15152303  0.21677724     0.00900
Br1326     Br  0.99463959  0.16044849  0.09867929    -0.02900
Br1327     Br  0.90723404  0.13818442  0.09497411    -0.03700
Br1328     Br  0.01303381  0.05013178  0.09612485     0.00300
loop_ 
_geom_bond_atom_site_label_1 
_geom_bond_atom_site_label_2 
_geom_bond_distance 
_geom_bond_site_symmetry_2 
_ccdc_geom_bond_type 
O1           C17   1.274       .  A
O1           Zn7   2.014   1_545  S
C2           O18   1.273   1_455  A
C2           O15   1.277       .  A
C2         C1249   1.483       .  S
O3           C16   1.275       .  A
O3          Cd10   2.076       .  S
O4           C22   1.277       .  A
O4          Cd13   2.086   1_564  S
O5           C19   1.277       .  A
O5           Cd9   2.080   1_455  S
O6           C17   1.277       .  A
O6           Cd9   2.092       .  S
Zn7          O18   2.005       .  S
Zn7          O20   2.014       .  S
Zn7          O12   1.930   1_565  S
O8           C19   1.274       .  A
O8          Cd13   2.066       .  S
Cd9          O11   2.073   1_556  S
Cd9          O12   2.011       .  S
Cd10         O14   2.057   1_565  S
Cd10         O23   2.079   1_655  S
Cd10         O12   2.004   1_564  S
O11          C21   1.275       .  A
O12         Cd13   2.007   1_655  S
Cd13         O15   2.087   1_545  S
O14          C21   1.273       .  A
C16          O20   1.274   1_554  A
C16        C1218   1.479       .  S
C17        C1289   1.492       .  S
C19        C1229   1.477       .  S
C21        C1318   1.474       .  S
C22          O23   1.275       .  A
C22        C1278   1.492       .  S
O24          C40   1.272       .  A
O24         Zn30   2.004   1_455  S
C25          O41   1.273       .  A
C25          O38   1.272       .  A
C25        C1129   1.483       .  S
O26          C39   1.278       .  A
O26         Cd33   2.099       .  S
O27          C45   1.273       .  A
O27         Cd36   2.057       .  S
O28          C42   1.275       .  A
O28         Cd32   2.072       .  S
O29          C40   1.276       .  A
O29         Cd32   2.091       .  S
Zn30         O41   2.009       .  S
Zn30         O43   1.988       .  S
Zn30         O35   1.926       .  S
O31          C42   1.272       .  A
O31         Cd36   2.059   1_455  S
Cd32         O34   2.067       .  S
Cd32         O35   2.004   1_455  S
Cd33         O37   2.085   1_655  S
Cd33         O46   2.090       .  S
Cd33         O35   2.011       .  S
O34          C44   1.274       .  A
O35         Cd36   1.997       .  S
Cd36         O38   2.063       .  S
O37          C44   1.278       .  A
C39          O43   1.271       .  A
C39        C1198   1.479       .  S
C40        C1169   1.475       .  S
C42        C1158   1.475       .  S
C44        C1118   1.488       .  S
C45          O46   1.277       .  A
C45        C1309   1.483       .  S
O47          C63   1.269       .  A
O47         Zn53   1.980       .  S
C48          O64   1.271       .  A
C48          O61   1.277       .  A
C48        C1029   1.484       .  S
O49          C62   1.276       .  A
O49         Cd56   2.091       .  S
O50          C68   1.277       .  A
O50         Cd59   2.084       .  S
O51          C65   1.278       .  A
O51         Cd55   2.086       .  S
O52          C63   1.277       .  A
O52         Cd55   2.094       .  S
Zn53         O64   2.004       .  S
Zn53         O66   1.991       .  S
Zn53         O58   1.925       .  S
O54          C65   1.276       .  A
O54         Cd59   2.078       .  S
Cd55         O57   2.088       .  S
Cd55         O58   2.014       .  S
Cd56         O60   2.081       .  S
Cd56         O69   2.064       .  S
Cd56         O58   2.011       .  S
O57          C67   1.276       .  A
O58         Cd59   2.013       .  S
Cd59         O61   2.102       .  S
O60          C67   1.275       .  A
C62          O66   1.271       .  A
C62        C1189   1.486       .  S
C63        C1058   1.483       .  S
C65        C1069   1.478       .  S
C67        C1009   1.481       .  S
C68          O69   1.274       .  A
C68        C1089   1.484       .  S
O70          C86   1.274       .  A
O70         Zn76   2.009   1_545  S
C71          O87   1.273       .  A
C71          O84   1.274       .  A
C71         C989   1.486       .  S
O72          C85   1.280       .  A
O72         Cd79   2.116       .  S
O73          C91   1.272       .  A
O73         Cd82   2.056       .  S
O74          C88   1.275       .  A
O74         Cd78   2.072       .  S
O75          C86   1.276       .  A
O75         Cd78   2.094       .  S
Zn76         O87   2.005       .  S
Zn76         O89   2.017       .  S
Zn76         O81   1.924       .  S
O77          C88   1.276       .  A
O77         Cd82   2.080   1_545  S
Cd78         O80   2.067       .  S
Cd78         O81   2.002   1_545  S
Cd79         O83   2.078   1_565  S
Cd79         O92   2.105       .  S
Cd79         O81   2.011       .  S
O80          C90   1.275       .  A
O81         Cd82   1.999       .  S
Cd82         O84   2.069       .  S
O83          C90   1.276       .  A
C85          O89   1.274       .  A
C85         C929   1.500       .  S
C86        C1298   1.478       .  S
C88         C958   1.487       .  S
C90        C1098   1.488       .  S
C91          O92   1.280       .  A
C91         C978   1.480       .  S
O93         C109   1.270       .  A
O93         Zn99   1.986       .  S
C94         O110   1.271   1_545  A
C94         O107   1.275       .  A
C94         C849   1.471       .  S
O95         C108   1.278       .  A
O95        Cd102   2.097       .  S
O96         C114   1.273       .  A
O96        Cd105   2.059       .  S
O97         C111   1.276       .  A
O97        Cd101   2.090   1_545  S
O98         C109   1.279       .  A
O98        Cd101   2.107       .  S
Zn99        O110   1.991       .  S
Zn99        O112   2.009       .  S
Zn99        O104   1.924       .  S
O100        C111   1.273       .  A
O100       Cd105   2.058       .  S
Cd101       O103   2.095       .  S
Cd101       O104   2.020       .  S
Cd102       O106   2.072       .  S
Cd102       O115   2.089   1_565  S
Cd102       O104   2.006       .  S
O103        C113   1.279       .  A
O104       Cd105   2.003   1_565  S
Cd105       O107   2.083       .  S
O106        C113   1.276       .  A
C108        O112   1.273       .  A
C108        C889   1.483       .  S
C109        C909   1.483       .  S
C111        C869   1.492       .  S
C113       C1269   1.487       .  S
C114        O115   1.277       .  A
C114       C1109   1.478       .  S
O116        C132   1.275       .  A
O116       Zn122   2.024       .  S
C117        O133   1.271   1_655  A
C117        O130   1.279       .  A
C117        C829   1.498       .  S
O118        C131   1.277       .  A
O118       Cd125   2.099       .  S
O119        C137   1.278       .  A
O119       Cd128   2.094       .  S
O120        C134   1.276       .  A
O120       Cd124   2.079   1_655  S
O121        C132   1.277       .  A
O121       Cd124   2.099       .  S
Zn122       O133   2.001       .  S
Zn122       O135   2.008       .  S
Zn122       O127   1.931       .  S
O123        C134   1.277       .  A
O123       Cd128   2.085       .  S
Cd124       O126   2.081       .  S
Cd124       O127   2.015       .  S
Cd125       O129   2.078       .  S
Cd125       O138   2.082   1_455  S
Cd125       O127   2.013       .  S
O126        C136   1.276       .  A
O127       Cd128   2.021   1_455  S
Cd128       O130   2.108       .  S
O129        C136   1.275       .  A
C131        O135   1.273       .  A
C131        C769   1.484       .  S
C132        C809   1.483       .  S
C134        C798   1.486       .  S
C136       C1178   1.479       .  S
C137        O138   1.277       .  A
C137       C1038   1.486       .  S
O139        C155   1.274       .  A
O139       Zn145   2.007       .  S
C140        O156   1.270       .  A
C140        O153   1.278       .  A
C140        C729   1.496       .  S
O141        C154   1.276       .  A
O141       Cd148   2.093       .  S
O142        C160   1.278       .  A
O142       Cd151   2.089       .  S
O143        C157   1.276       .  A
O143       Cd147   2.079       .  S
O144        C155   1.278       .  A
O144       Cd147   2.100       .  S
Zn145       O156   1.987       .  S
Zn145       O158   2.005       .  S
Zn145       O150   1.925       .  S
O146        C157   1.276       .  A
O146       Cd151   2.083       .  S
Cd147       O149   2.072       .  S
Cd147       O150   2.010       .  S
Cd148       O152   2.087       .  S
Cd148       O161   2.080       .  S
Cd148       O150   2.010       .  S
O149        C159   1.276       .  A
O150       Cd151   2.018       .  S
Cd151       O153   2.105       .  S
O152        C159   1.275       .  A
C154        O158   1.271       .  A
C154        C689   1.478       .  S
C155        C749   1.487       .  S
C157        C718   1.492       .  S
C159       C1078   1.499       .  S
C160        O161   1.278       .  A
C160        C949   1.484       .  S
O162        C178   1.272       .  A
O162       Zn168   1.998       .  S
C163        O179   1.272       .  A
C163        O176   1.273       .  A
C163        C998   1.465       .  S
O164        C177   1.276       .  A
O164       Cd171   2.089       .  S
O165        C183   1.268       .  A
O165       Cd174   2.064   1_554  S
O166        C180   1.277       .  A
O166       Cd170   2.094       .  S
O167        C178   1.277       .  A
O167       Cd170   2.091       .  S
Zn168       O179   1.998       .  S
Zn168       O181   2.010       .  S
Zn168       O173   1.922       .  S
O169        C180   1.272       .  A
O169       Cd174   2.057       .  S
Cd170       O172   2.063   1_556  S
Cd170       O173   2.007       .  S
Cd171       O175   2.081       .  S
Cd171       O184   2.069       .  S
Cd171       O173   2.008   1_554  S
O172        C182   1.275       .  A
O173       Cd174   2.001       .  S
Cd174       O176   2.070       .  S
O175        C182   1.278       .  A
C177        O181   1.273   1_554  A
C177       C1209   1.491       .  S
C178        C669   1.479       .  S
C180        C609   1.484       .  S
C182        C649   1.483       .  S
C183        O184   1.278       .  A
C183        C638   1.491       .  S
O185        C201   1.275       .  A
O185       Zn191   2.025       .  S
C186        O202   1.273       .  A
C186        O199   1.277       .  A
C186        C569   1.497       .  S
O187        C200   1.275       .  A
O187       Cd194   2.085       .  S
O188        C206   1.276       .  A
O188       Cd197   2.077   1_554  S
O189        C203   1.274       .  A
O189       Cd193   2.079       .  S
O190        C201   1.276       .  A
O190       Cd193   2.082       .  S
Zn191       O202   2.009       .  S
Zn191       O204   2.017   1_556  S
Zn191       O196   1.927   1_556  S
O192        C203   1.274       .  A
O192       Cd197   2.068       .  S
Cd193       O195   2.077   1_556  S
Cd193       O196   2.008   1_556  S
Cd194       O198   2.060       .  S
Cd194       O207   2.060       .  S
Cd194       O196   2.002       .  S
O195        C205   1.276       .  A
O196       Cd197   2.005   1_554  S
Cd197       O199   2.093       .  S
O198        C205   1.273       .  A
C200        O204   1.275       .  A
C200        C598   1.486       .  S
C201        C738   1.481       .  S
C203       C1238   1.492       .  S
C205        C878   1.470       .  S
C206        O207   1.273       .  A
C206       C1149   1.479       .  S
O208        C224   1.270       .  A
O208       Zn214   1.982       .  S
C209        O225   1.270       .  A
C209        O222   1.274       .  A
C209       C1138   1.471       .  S
O210        C223   1.278       .  A
O210       Cd217   2.104       .  S
O211        C229   1.275       .  A
O211       Cd220   2.068       .  S
O212        C226   1.277       .  A
O212       Cd216   2.087       .  S
O213        C224   1.276       .  A
O213       Cd216   2.088       .  S
Zn214       O225   1.986       .  S
Zn214       O227   1.995       .  S
Zn214       O219   1.918       .  S
O215        C226   1.274       .  A
O215       Cd220   2.072       .  S
Cd216       O218   2.067       .  S
Cd216       O219   2.006       .  S
Cd217       O221   2.085       .  S
Cd217       O230   2.069       .  S
Cd217       O219   2.010       .  S
O218        C228   1.274       .  A
O219       Cd220   2.008       .  S
Cd220       O222   2.080       .  S
O221        C228   1.277       .  A
C223        O227   1.271       .  A
C223        C789   1.490       .  S
C224       C1049   1.477       .  S
C226        C529   1.493       .  S
C228        C558   1.488       .  S
C229        O230   1.275       .  A
C229        C658   1.476       .  S
O231        C247   1.275       .  A
O231       Zn237   2.024       .  S
C232        O248   1.272   1_545  A
C232        O245   1.276       .  A
C232        C858   1.484       .  S
O233        C246   1.280       .  A
O233       Cd240   2.113       .  S
O234        C252   1.273       .  A
O234       Cd243   2.072       .  S
O235        C249   1.275       .  A
O235       Cd239   2.068   1_545  S
O236        C247   1.275       .  A
O236       Cd239   2.082       .  S
Zn237       O248   2.002       .  S
Zn237       O250   2.000       .  S
Zn237       O242   1.927   1_565  S
O238        C249   1.276       .  A
O238       Cd243   2.085       .  S
Cd239       O241   2.073       .  S
Cd239       O242   2.005   1_565  S
Cd240       O244   2.088       .  S
Cd240       O253   2.105   1_565  S
Cd240       O242   2.009   1_565  S
O241        C251   1.275       .  A
O242       Cd243   2.003       .  S
Cd243       O245   2.082       .  S
O244        C251   1.279       .  A
C246        O250   1.273       .  A
C246        C498   1.496       .  S
C247        C509   1.479       .  S
C249        C709   1.478       .  S
C251        C969   1.492       .  S
C252        O253   1.281       .  A
C252       C1018   1.504       .  S
O254        C270   1.274   1_455  A
O254       Zn260   2.024       .  S
C255        O271   1.272       .  A
C255        O268   1.280       .  A
C255        C449   1.492       .  S
O256        C269   1.279       .  A
O256       Cd263   2.111       .  S
O257        C275   1.278       .  A
O257       Cd266   2.087       .  S
O258        C272   1.276       .  A
O258       Cd262   2.075       .  S
O259        C270   1.275       .  A
O259       Cd262   2.083       .  S
Zn260       O271   1.993       .  S
Zn260       O273   1.995       .  S
Zn260       O265   1.930       .  S
O261        C272   1.277       .  A
O261       Cd266   2.092   1_655  S
Cd262       O264   2.060       .  S
Cd262       O265   2.011   1_655  S
Cd263       O267   2.094   1_455  S
Cd263       O276   2.087       .  S
Cd263       O265   2.017       .  S
O264        C274   1.273       .  A
O265       Cd266   2.017       .  S
Cd266       O268   2.109       .  S
O267        C274   1.279       .  A
C269        O273   1.271       .  A
C269        C478   1.484       .  S
C270        C838   1.480       .  S
C272        C938   1.492       .  S
C274        C678   1.477       .  S
C275        O276   1.276       .  A
C275       C1258   1.499       .  S
O277        C293   1.273       .  A
O277       Zn283   2.014       .  S
C278        O294   1.273       .  A
C278        O291   1.277       .  A
C278        C429   1.476       .  S
O279        C292   1.274       .  A
O279       Cd286   2.080       .  S
O280        C298   1.277       .  A
O280       Cd289   2.090       .  S
O281        C295   1.277       .  A
O281       Cd285   2.083       .  S
O282        C293   1.278       .  A
O282       Cd285   2.100       .  S
Zn283       O294   2.001       .  S
Zn283       O296   2.026       .  S
Zn283       O288   1.932       .  S
O284        C295   1.276       .  A
O284       Cd289   2.078       .  S
Cd285       O287   2.073       .  S
Cd285       O288   2.014       .  S
Cd286       O290   2.070       .  S
Cd286       O299   2.066       .  S
Cd286       O288   2.006       .  S
O287        C297   1.275       .  A
O288       Cd289   2.016       .  S
Cd289       O291   2.092       .  S
O290        C297   1.275       .  A
C292        O296   1.275       .  A
C292        C489   1.478       .  S
C293        C918   1.493       .  S
C295        C409   1.489       .  S
C297        C629   1.475       .  S
C298        O299   1.274       .  A
C298        C549   1.486       .  S
O300        C316   1.274       .  A
O300       Zn306   2.012       .  S
C301        O317   1.274       .  A
C301        O314   1.277       .  A
C301        C818   1.505       .  S
O302        C315   1.276       .  A
O302       Cd309   2.087       .  S
O303        C321   1.276       .  A
O303       Cd312   2.080       .  S
O304        C318   1.277       .  A
O304       Cd308   2.080       .  S
O305        C316   1.277       .  A
O305       Cd308   2.092       .  S
Zn306       O317   2.019       .  S
Zn306       O319   2.010       .  S
Zn306       O311   1.925       .  S
O307        C318   1.277       .  A
O307       Cd312   2.079       .  S
Cd308       O310   2.072       .  S
Cd308       O311   2.008       .  S
Cd309       O313   2.082       .  S
Cd309       O322   2.071       .  S
Cd309       O311   2.010       .  S
O310        C320   1.274       .  A
O311       Cd312   2.010       .  S
Cd312       O314   2.101       .  S
O313        C320   1.276       .  A
C315        O319   1.274       .  A
C315        C398   1.477       .  S
C316        C458   1.483       .  S
C318        C898   1.485       .  S
C320        C518   1.482       .  S
C321        O322   1.275       .  A
C321        C438   1.480       .  S
O323        C339   1.274       .  A
O323       Zn329   2.013       .  S
C324        O340   1.272       .  A
C324        O337   1.277       .  A
C324        C378   1.490       .  S
O325        C338   1.276       .  A
O325       Cd332   2.092       .  S
O326        C344   1.276       .  A
O326       Cd335   2.081       .  S
O327        C341   1.277       .  A
O327       Cd331   2.085       .  S
O328        C339   1.277       .  A
O328       Cd331   2.098       .  S
Zn329       O340   1.999       .  S
Zn329       O342   2.005       .  S
Zn329       O334   1.932       .  S
O330        C341   1.275       .  A
O330       Cd335   2.069       .  S
Cd331       O333   2.081       .  S
Cd331       O334   2.016       .  S
Cd332       O336   2.086       .  S
Cd332       O345   2.088       .  S
Cd332       O334   2.014       .  S
O333        C343   1.276       .  A
O334       Cd335   2.015       .  S
Cd335       O337   2.100       .  S
O336        C343   1.277       .  A
C338        O342   1.272       .  A
C338        C578   1.476       .  S
C339        C758   1.492       .  S
C341        C389   1.479       .  S
C343        C778   1.484       .  S
C344        O345   1.278       .  A
C344        C469   1.487       .  S
O346        C362   1.273       .  A
O346       Zn352   2.008       .  S
C347        O363   1.273       .  A
C347        O360   1.276       .  A
C347        C589   1.483       .  S
O348        C361   1.277       .  A
O348       Cd355   2.089       .  S
O349        C367   1.276       .  A
O349       Cd358   2.082       .  S
O350        C364   1.277       .  A
O350       Cd354   2.084   1_554  S
O351        C362   1.279       .  A
O351       Cd354   2.107       .  S
Zn352       O363   2.010   1_556  S
Zn352       O365   2.017       .  S
Zn352       O357   1.931   1_556  S
O353        C364   1.275       .  A
O353       Cd358   2.065       .  S
Cd354       O356   2.085       .  S
Cd354       O357   2.018   1_556  S
Cd355       O359   2.079       .  S
Cd355       O368   2.066   1_556  S
Cd355       O357   2.010   1_556  S
O356        C366   1.277       .  A
O357       Cd358   2.009       .  S
Cd358       O360   2.091       .  S
O359        C366   1.276       .  A
C361        O365   1.275       .  A
C361        C369   1.490       .  S
C362        C698   1.497       .  S
C364        C538   1.481       .  S
C366        C618   1.492       .  S
C367        O368   1.273       .  A
C367        C418   1.480       .  S
C369        C370   1.416       .  A
C369        C374   1.417       .  A
C370        C371   1.411       .  A
C370       Br382   1.930       .  S
C371        C372   1.408       .  A
C371       Br386   1.929       .  S
C372        C375   1.489       .  S
C372        C373   1.408       .  A
C373        C374   1.408       .  A
C373       Br381   1.932       .  S
C374       Br385   1.934       .  S
C375        C376   1.409       .  A
C375        C380   1.407       .  A
C376        C377   1.413       .  A
C376       Br387   1.929       .  S
C377        C378   1.416       .  A
C377       Br383   1.929       .  S
C378        C379   1.417       .  A
C379        C380   1.406       .  A
C379       Br388   1.935       .  S
C380       Br384   1.933       .  S
C389        C390   1.410       .  A
C389        C394   1.412       .  A
C390        C391   1.411       .  A
C390       Br402   1.928       .  S
C391        C392   1.410       .  A
C391       Br406   1.927       .  S
C392        C395   1.487       .  S
C392        C393   1.409       .  A
C393        C394   1.406       .  A
C393       Br401   1.932       .  S
C394       Br405   1.933       .  S
C395        C396   1.411       .  A
C395        C400   1.409       .  A
C396        C397   1.410       .  A
C396       Br407   1.928       .  S
C397        C398   1.410       .  A
C397       Br403   1.929       .  S
C398        C399   1.410       .  A
C399        C400   1.406       .  A
C399       Br408   1.929       .  S
C400       Br404   1.930       .  S
C409        C410   1.414       .  A
C409        C414   1.417       .  A
C410        C411   1.411       .  A
C410       Br422   1.929       .  S
C411        C412   1.409       .  A
C411       Br426   1.929       .  S
C412        C415   1.489       .  S
C412        C413   1.409       .  A
C413        C414   1.409       .  A
C413       Br421   1.933       .  S
C414       Br425   1.934       .  S
C415        C416   1.411       .  A
C415        C420   1.410       .  A
C416        C417   1.411       .  A
C416       Br427   1.927       .  S
C417        C418   1.410       .  A
C417       Br423   1.928       .  S
C418        C419   1.413       .  A
C419        C420   1.406       .  A
C419       Br428   1.934       .  S
C420       Br424   1.933       .  S
C429        C430   1.411       .  A
C429        C434   1.409       .  A
C430        C431   1.406       .  A
C430       Br442   1.933       .  S
C431        C432   1.408       .  A
C431       Br446   1.930       .  S
C432        C435   1.486       .  S
C432        C433   1.411       .  A
C433        C434   1.411       .  A
C433       Br441   1.928       .  S
C434       Br445   1.928       .  S
C435        C436   1.409       .  A
C435        C440   1.409       .  A
C436        C437   1.407       .  A
C436       Br447   1.932       .  S
C437        C438   1.413       .  A
C437       Br443   1.933       .  S
C438        C439   1.411       .  A
C439        C440   1.410       .  A
C439       Br448   1.928       .  S
C440       Br444   1.928       .  S
C449        C450   1.417       .  A
C449        C454   1.418       .  A
C450        C451   1.414       .  A
C450       Br462   1.927       .  S
C451        C452   1.409       .  A
C451       Br466   1.929       .  S
C452        C455   1.489       .  S
C452        C453   1.407       .  A
C453        C454   1.405       .  A
C453       Br461   1.933       .  S
C454       Br465   1.936       .  S
C455        C456   1.411       .  A
C455        C460   1.409       .  A
C456        C457   1.410       .  A
C456       Br467   1.929       .  S
C457        C458   1.411       .  A
C457       Br463   1.928       .  S
C458        C459   1.413       .  A
C459        C460   1.408       .  A
C459       Br468   1.932       .  S
C460       Br464   1.930       .  S
C469        C470   1.413       .  A
C469        C474   1.414       .  A
C470        C471   1.412       .  A
C470       Br482   1.929       .  S
C471        C472   1.409       .  A
C471       Br486   1.928       .  S
C472        C475   1.492       .  S
C472        C473   1.410       .  A
C473        C474   1.409       .  A
C473       Br481   1.932       .  S
C474       Br485   1.933       .  S
C475        C476   1.411       .  A
C475        C480   1.409       .  A
C476        C477   1.413       .  A
C476       Br487   1.927       .  S
C477        C478   1.411       .  A
C477       Br483   1.928       .  S
C478        C479   1.412       .  A
C479        C480   1.408       .  A
C479       Br488   1.931       .  S
C480       Br484   1.930       .  S
C489        C490   1.406       .  A
C489        C494   1.409       .  A
C490        C491   1.406       .  A
C490       Br502   1.924       .  S
C491        C492   1.411       .  A
C491       Br506   1.929       .  S
C492        C495   1.491       .  S
C492        C493   1.412       .  A
C493        C494   1.411       .  A
C493       Br501   1.927       .  S
C494       Br505   1.927       .  S
C495        C496   1.410       .  A
C495        C500   1.408       .  A
C496        C497   1.414       .  A
C496       Br507   1.929       .  S
C497        C498   1.418       .  A
C497       Br503   1.927       .  S
C498        C499   1.418       .  A
C499        C500   1.406       .  A
C499       Br508   1.930       .  S
C500       Br504   1.936       .  S
C509        C510   1.408       .  A
C509        C514   1.411       .  A
C510        C511   1.406       .  A
C510       Br522   1.927       .  S
C511        C512   1.410       .  A
C511       Br526   1.930       .  S
C512        C515   1.490       .  S
C512        C513   1.411       .  A
C513        C514   1.411       .  A
C513       Br521   1.929       .  S
C514       Br525   1.928       .  S
C515        C516   1.410       .  A
C515        C520   1.411       .  A
C516        C517   1.407       .  A
C516       Br527   1.933       .  S
C517        C518   1.413       .  A
C517       Br523   1.934       .  S
C518        C519   1.412       .  A
C519        C520   1.411       .  A
C519       Br528   1.929       .  S
C520       Br524   1.928       .  S
C529        C530   1.418       .  A
C529        C534   1.421       .  A
C530        C531   1.411       .  A
C530       Br542   1.930       .  S
C531        C532   1.407       .  A
C531       Br546   1.930       .  S
C532        C535   1.487       .  S
C532        C533   1.407       .  A
C533        C534   1.408       .  A
C533       Br541   1.934       .  S
C534       Br545   1.936       .  S
C535        C536   1.410       .  A
C535        C540   1.408       .  A
C536        C537   1.411       .  A
C536       Br547   1.928       .  S
C537        C538   1.412       .  A
C537       Br543   1.928       .  S
C538        C539   1.414       .  A
C539        C540   1.405       .  A
C539       Br548   1.935       .  S
C540       Br544   1.932       .  S
C549        C550   1.416       .  A
C549        C554   1.414       .  A
C550        C551   1.406       .  A
C550       Br562   1.934       .  S
C551        C552   1.408       .  A
C551       Br566   1.933       .  S
C552        C555   1.489       .  S
C552        C553   1.410       .  A
C553        C554   1.412       .  A
C553       Br561   1.929       .  S
C554       Br565   1.929       .  S
C555        C556   1.409       .  A
C555        C560   1.409       .  A
C556        C557   1.407       .  A
C556       Br567   1.934       .  S
C557        C558   1.418       .  A
C557       Br563   1.936       .  S
C558        C559   1.415       .  A
C559        C560   1.411       .  A
C559       Br568   1.929       .  S
C560       Br564   1.928       .  S
C569        C570   1.422       .  A
C569        C574   1.421       .  A
C570        C571   1.407       .  A
C570       Br582   1.938       .  S
C571        C572   1.406       .  A
C571       Br586   1.934       .  S
C572        C575   1.488       .  S
C572        C573   1.407       .  A
C573        C574   1.413       .  A
C573       Br581   1.930       .  S
C574       Br585   1.931       .  S
C575        C576   1.410       .  A
C575        C580   1.410       .  A
C576        C577   1.407       .  A
C576       Br587   1.930       .  S
C577        C578   1.409       .  A
C577       Br583   1.930       .  S
C578        C579   1.409       .  A
C579        C580   1.410       .  A
C579       Br588   1.927       .  S
C580       Br584   1.928       .  S
C589        C590   1.412       .  A
C589        C594   1.412       .  A
C590        C591   1.412       .  A
C590       Br602   1.927       .  S
C591        C592   1.410       .  A
C591       Br606   1.928       .  S
C592        C595   1.489       .  S
C592        C593   1.409       .  A
C593        C594   1.407       .  A
C593       Br601   1.932       .  S
C594       Br605   1.932       .  S
C595        C596   1.409       .  A
C595        C600   1.409       .  A
C596        C597   1.413       .  A
C596       Br607   1.928       .  S
C597        C598   1.415       .  A
C597       Br603   1.929       .  S
C598        C599   1.413       .  A
C599        C600   1.406       .  A
C599       Br608   1.933   1_554  S
C600       Br604   1.932       .  S
C609        C610   1.416   1_556  A
C609        C614   1.411       .  A
C610        C611   1.408   1_554  A
C610       Br622   1.935       .  S
C611        C612   1.409       .  A
C611       Br626   1.931   1_556  S
C612        C615   1.491       .  S
C612        C613   1.411       .  A
C613        C614   1.411       .  A
C613       Br621   1.928       .  S
C614       Br625   1.929       .  S
C615        C616   1.408       .  A
C615        C620   1.409       .  A
C616        C617   1.409       .  A
C616       Br627   1.933   1_556  S
C617        C618   1.419       .  A
C617       Br623   1.935   1_556  S
C618        C619   1.415       .  A
C619        C620   1.412       .  A
C619       Br628   1.929       .  S
C620       Br624   1.929       .  S
C629        C630   1.410       .  A
C629        C634   1.411       .  A
C630        C631   1.409       .  A
C630       Br642   1.929       .  S
C631        C632   1.409       .  A
C631       Br646   1.928       .  S
C632        C635   1.483       .  S
C632        C633   1.409       .  A
C633        C634   1.405       .  A
C633       Br641   1.933       .  S
C634       Br645   1.932       .  S
C635        C636   1.404       .  A
C635        C640   1.407       .  A
C636        C637   1.408       .  A
C636       Br647   1.930       .  S
C637        C638   1.422       .  A
C637       Br643   1.933       .  S
C638        C639   1.419       .  A
C639        C640   1.407       .  A
C639       Br648   1.936       .  S
C640       Br644   1.933       .  S
C649        C650   1.418       .  A
C649        C654   1.414       .  A
C650        C651   1.405       .  A
C650       Br662   1.936       .  S
C651        C652   1.406       .  A
C651       Br666   1.933       .  S
C652        C655   1.482       .  S
C652        C653   1.408       .  A
C653        C654   1.409       .  A
C653       Br661   1.929       .  S
C654       Br665   1.929       .  S
C655        C656   1.408       .  A
C655        C660   1.409       .  A
C656        C657   1.405       .  A
C656       Br667   1.932       .  S
C657        C658   1.413       .  A
C657       Br663   1.935       .  S
C658        C659   1.411       .  A
C659        C660   1.408       .  A
C659       Br668   1.929       .  S
C660       Br664   1.929       .  S
C669        C670   1.412       .  A
C669        C674   1.411       .  A
C670        C671   1.407       .  A
C670       Br682   1.931       .  S
C671        C672   1.409       .  A
C671       Br686   1.931       .  S
C672        C675   1.486       .  S
C672        C673   1.410       .  A
C673        C674   1.409       .  A
C673       Br681   1.929       .  S
C674       Br685   1.929       .  S
C675        C676   1.410       .  A
C675        C680   1.409       .  A
C676        C677   1.411       .  A
C676       Br687   1.927       .  S
C677        C678   1.411       .  A
C677       Br683   1.928       .  S
C678        C679   1.410       .  A
C679        C680   1.405       .  A
C679       Br688   1.927       .  S
C680       Br684   1.932       .  S
C689        C690   1.408       .  A
C689        C694   1.410       .  A
C690        C691   1.409       .  A
C690       Br702   1.929       .  S
C691        C692   1.411       .  A
C691       Br706   1.928       .  S
C692        C695   1.492       .  S
C692        C693   1.411       .  A
C693        C694   1.410       .  A
C693       Br701   1.929       .  S
C694       Br705   1.930       .  S
C695        C696   1.409       .  A
C695        C700   1.408       .  A
C696        C697   1.414       .  A
C696       Br707   1.929       .  S
C697        C698   1.419       .  A
C697       Br703   1.930       .  S
C698        C699   1.420       .  A
C699        C700   1.408       .  A
C699       Br708   1.935       .  S
C700       Br704   1.934       .  S
C709        C710   1.409       .  A
C709        C714   1.411       .  A
C710        C711   1.410       .  A
C710       Br722   1.929       .  S
C711        C712   1.411       .  A
C711       Br726   1.927       .  S
C712        C715   1.490       .  S
C712        C713   1.410       .  A
C713        C714   1.408       .  A
C713       Br721   1.931       .  S
C714       Br725   1.931       .  S
C715        C716   1.408       .  A
C715        C720   1.409       .  A
C716        C717   1.411       .  A
C716       Br727   1.929       .  S
C717        C718   1.416       .  A
C717       Br723   1.930       .  S
C718        C719   1.419       .  A
C719        C720   1.410       .  A
C719       Br728   1.935       .  S
C720       Br724   1.933       .  S
C729        C730   1.422       .  A
C729        C734   1.420       .  A
C730        C731   1.406       .  A
C730       Br742   1.938       .  S
C731        C732   1.406       .  A
C731       Br746   1.934       .  S
C732        C735   1.489       .  S
C732        C733   1.408       .  A
C733        C734   1.414       .  A
C733       Br741   1.929       .  S
C734       Br745   1.931       .  S
C735        C736   1.410       .  A
C735        C740   1.410       .  A
C736        C737   1.408       .  A
C736       Br747   1.930       .  S
C737        C738   1.410       .  A
C737       Br743   1.930       .  S
C738        C739   1.413       .  A
C739        C740   1.411       .  A
C739       Br748   1.930       .  S
C740       Br744   1.929       .  S
C749        C750   1.414       .  A
C749        C754   1.415       .  A
C750        C751   1.413       .  A
C750       Br762   1.928       .  S
C751        C752   1.410       .  A
C751       Br766   1.928       .  S
C752        C755   1.491       .  S
C752        C753   1.408       .  A
C753        C754   1.407       .  A
C753       Br761   1.930       .  S
C754       Br765   1.934       .  S
C755        C756   1.409       .  A
C755        C760   1.408       .  A
C756        C757   1.414       .  A
C756       Br767   1.929       .  S
C757        C758   1.417       .  A
C757       Br763   1.930       .  S
C758        C759   1.417       .  A
C759        C760   1.407       .  A
C759       Br768   1.934       .  S
C760       Br764   1.933       .  S
C769        C770   1.412       .  A
C769        C774   1.412       .  A
C770        C771   1.406       .  A
C770       Br782   1.932       .  S
C771        C772   1.409       .  A
C771       Br786   1.932       .  S
C772        C775   1.491       .  S
C772        C773   1.411       .  A
C773        C774   1.414       .  A
C773       Br781   1.927       .  S
C774       Br785   1.928       .  S
C775        C776   1.410       .  A
C775        C780   1.410       .  A
C776        C777   1.407       .  A
C776       Br787   1.931       .  S
C777        C778   1.412       .  A
C777       Br783   1.933       .  S
C778        C779   1.412       .  A
C779        C780   1.413       .  A
C779       Br788   1.927       .  S
C780       Br784   1.928       .  S
C789        C790   1.415       .  A
C789        C794   1.418       .  A
C790        C791   1.413       .  A
C790       Br802   1.929       .  S
C791        C792   1.409       .  A
C791       Br806   1.928       .  S
C792        C795   1.490       .  S
C792        C793   1.407       .  A
C793        C794   1.408       .  A
C793       Br801   1.932       .  S
C794       Br805   1.935       .  S
C795        C796   1.410       .  A
C795        C800   1.409       .  A
C796        C797   1.412       .  A
C796       Br807   1.929       .  S
C797        C798   1.414       .  A
C797       Br803   1.929       .  S
C798        C799   1.415       .  A
C799        C800   1.408       .  A
C799       Br808   1.934       .  S
C800       Br804   1.931       .  S
C809        C810   1.410       .  A
C809        C814   1.410       .  A
C810        C811   1.409       .  A
C810       Br822   1.928       .  S
C811        C812   1.410       .  A
C811       Br826   1.929       .  S
C812        C815   1.493       .  S
C812        C813   1.411       .  A
C813        C814   1.412       .  A
C813       Br821   1.927       .  S
C814       Br825   1.928       .  S
C815        C816   1.408       .  A
C815        C820   1.406       .  A
C816        C817   1.416       .  A
C816       Br827   1.929       .  S
C817        C818   1.423       .  A
C817       Br823   1.932       .  S
C818        C819   1.424       .  A
C819        C820   1.408       .  A
C819       Br828   1.936       .  S
C820       Br824   1.935       .  S
C829        C830   1.422       .  A
C829        C834   1.419       .  A
C830        C831   1.407       .  A
C830       Br842   1.934   1_655  S
C831        C832   1.406       .  A
C831       Br846   1.935   1_655  S
C832        C835   1.491       .  S
C832        C833   1.409       .  A
C833        C834   1.415       .  A
C833       Br841   1.929       .  S
C834       Br845   1.930       .  S
C835        C836   1.411       .  A
C835        C840   1.411       .  A
C836        C837   1.410       .  A
C836       Br847   1.929       .  S
C837        C838   1.411       .  A
C837       Br843   1.930       .  S
C838        C839   1.410       .  A
C839        C840   1.409       .  A
C839       Br848   1.929       .  S
C840       Br844   1.929       .  S
C849        C850   1.408       .  A
C849        C854   1.410       .  A
C850        C851   1.408       .  A
C850       Br862   1.928       .  S
C851        C852   1.411       .  A
C851       Br866   1.929       .  S
C852        C855   1.483       .  S
C852        C853   1.409       .  A
C853        C854   1.405       .  A
C853       Br861   1.930       .  S
C854       Br865   1.932       .  S
C855        C856   1.407       .  A
C855        C860   1.408       .  A
C856        C857   1.410       .  A
C856       Br867   1.929       .  S
C857        C858   1.416       .  A
C857       Br863   1.931       .  S
C858        C859   1.416       .  A
C859        C860   1.405       .  A
C859       Br868   1.935   1_545  S
C860       Br864   1.934   1_545  S
C869        C870   1.420       .  A
C869        C874   1.419       .  A
C870        C871   1.408       .  A
C870       Br882   1.933       .  S
C871        C872   1.407       .  A
C871       Br886   1.933       .  S
C872        C875   1.485       .  S
C872        C873   1.406       .  A
C873        C874   1.408       .  A
C873       Br881   1.930       .  S
C874       Br885   1.933       .  S
C875        C876   1.411       .  A
C875        C880   1.410       .  A
C876        C877   1.409       .  A
C876       Br887   1.927       .  S
C877        C878   1.407       .  A
C877       Br883   1.928       .  S
C878        C879   1.409       .  A
C879        C880   1.404       .  A
C879       Br888   1.933       .  S
C880       Br884   1.932       .  S
C889        C890   1.412       .  A
C889        C894   1.412       .  A
C890        C891   1.412       .  A
C890       Br902   1.930       .  S
C891        C892   1.411       .  A
C891       Br906   1.928       .  S
C892        C895   1.491       .  S
C892        C893   1.410       .  A
C893        C894   1.408       .  A
C893       Br901   1.932       .  S
C894       Br905   1.931       .  S
C895        C896   1.410       .  A
C895        C900   1.409       .  A
C896        C897   1.412       .  A
C896       Br907   1.928       .  S
C897        C898   1.413       .  A
C897       Br903   1.929       .  S
C898        C899   1.416       .  A
C899        C900   1.408       .  A
C899       Br908   1.935       .  S
C900       Br904   1.933       .  S
C909        C910   1.412       .  A
C909        C914   1.413       .  A
C910        C911   1.412       .  A
C910       Br922   1.930       .  S
C911        C912   1.412       .  A
C911       Br926   1.929       .  S
C912        C915   1.491       .  S
C912        C913   1.409       .  A
C913        C914   1.406       .  A
C913       Br921   1.932       .  S
C914       Br925   1.934       .  S
C915        C916   1.410       .  A
C915        C920   1.408       .  A
C916        C917   1.413       .  A
C916       Br927   1.930       .  S
C917        C918   1.416       .  A
C917       Br923   1.928       .  S
C918        C919   1.416       .  A
C919        C920   1.407       .  A
C919       Br928   1.926       .  S
C920       Br924   1.934       .  S
C929        C930   1.419       .  A
C929        C934   1.417       .  A
C930        C931   1.409       .  A
C930       Br942   1.928       .  S
C931        C932   1.407       .  A
C931       Br946   1.934       .  S
C932        C935   1.495       .  S
C932        C933   1.410       .  A
C933        C934   1.416       .  A
C933       Br941   1.929       .  S
C934       Br945   1.929       .  S
C935        C936   1.410       .  A
C935        C940   1.409       .  A
C936        C937   1.413       .  A
C936       Br947   1.928       .  S
C937        C938   1.415       .  A
C937       Br943   1.930       .  S
C938        C939   1.418       .  A
C939        C940   1.410       .  A
C939       Br948   1.935       .  S
C940       Br944   1.932       .  S
C949        C950   1.413       .  A
C949        C954   1.413       .  A
C950        C951   1.406       .  A
C950       Br962   1.931       .  S
C951        C952   1.408       .  A
C951       Br966   1.933       .  S
C952        C955   1.488       .  S
C952        C953   1.409       .  A
C953        C954   1.413       .  A
C953       Br961   1.927       .  S
C954       Br965   1.928       .  S
C955        C956   1.408       .  A
C955        C960   1.407       .  A
C956        C957   1.409       .  A
C956       Br967   1.931       .  S
C957        C958   1.417       .  A
C957       Br963   1.934       .  S
C958        C959   1.415       .  A
C959        C960   1.410       .  A
C959       Br968   1.930       .  S
C960       Br964   1.929       .  S
C969        C970   1.420       .  A
C969        C974   1.415       .  A
C970        C971   1.411       .  A
C970       Br982   1.935   1_565  S
C971        C972   1.410       .  A
C971       Br986   1.933       .  S
C972        C975   1.491       .  S
C972        C973   1.408       .  A
C973        C974   1.409       .  A
C973       Br981   1.930       .  S
C974       Br985   1.932       .  S
C975        C976   1.411       .  A
C975        C980   1.412       .  A
C976        C977   1.407       .  A
C976       Br987   1.933   1_565  S
C977        C978   1.410       .  A
C977       Br983   1.928   1_565  S
C978        C979   1.410       .  A
C979        C980   1.412       .  A
C979       Br988   1.928       .  S
C980       Br984   1.928       .  S
C989        C990   1.418       .  A
C989        C994   1.419       .  A
C990        C991   1.408       .  A
C990      Br1002   1.932       .  S
C991        C992   1.406       .  A
C991      Br1006   1.931       .  S
C992        C995   1.480       .  S
C992        C993   1.407       .  A
C993        C994   1.404       .  A
C993      Br1001   1.935       .  S
C994      Br1005   1.937       .  S
C995        C996   1.410       .  A
C995       C1000   1.410       .  A
C996        C997   1.403       .  A
C996      Br1007   1.930       .  S
C997        C998   1.405       .  A
C997      Br1003   1.929       .  S
C998        C999   1.407       .  A
C999       C1000   1.406       .  A
C999      Br1008   1.929       .  S
C1000     Br1004   1.929       .  S
C1009      C1010   1.410       .  A
C1009      C1014   1.411       .  A
C1010      C1011   1.407       .  A
C1010     Br1022   1.930       .  S
C1011      C1012   1.410       .  A
C1011     Br1026   1.931       .  S
C1012      C1015   1.492       .  S
C1012      C1013   1.412       .  A
C1013      C1014   1.414       .  A
C1013     Br1021   1.927       .  S
C1014     Br1025   1.928       .  S
C1015      C1016   1.407       .  A
C1015      C1020   1.405       .  A
C1016      C1017   1.413       .  A
C1016     Br1027   1.929       .  S
C1017      C1018   1.419       .  A
C1017     Br1023   1.929       .  S
C1018      C1019   1.426       .  A
C1019      C1020   1.411       .  A
C1019     Br1028   1.935       .  S
C1020     Br1024   1.933       .  S
C1029      C1030   1.412       .  A
C1029      C1034   1.411       .  A
C1030      C1031   1.409       .  A
C1030     Br1042   1.931       .  S
C1031      C1032   1.409       .  A
C1031     Br1046   1.930       .  S
C1032      C1035   1.492       .  S
C1032      C1033   1.411       .  A
C1033      C1034   1.413       .  A
C1033     Br1041   1.928       .  S
C1034     Br1045   1.929       .  S
C1035      C1036   1.409       .  A
C1035      C1040   1.411       .  A
C1036      C1037   1.407       .  A
C1036     Br1047   1.933       .  S
C1037      C1038   1.413       .  A
C1037     Br1043   1.930       .  S
C1038      C1039   1.412       .  A
C1039      C1040   1.414       .  A
C1039     Br1048   1.927       .  S
C1040     Br1044   1.927       .  S
C1049      C1050   1.414       .  A
C1049      C1054   1.412       .  A
C1050      C1051   1.403       .  A
C1050     Br1062   1.935       .  S
C1051      C1052   1.407       .  A
C1051     Br1066   1.933       .  S
C1052      C1055   1.481       .  S
C1052      C1053   1.408       .  A
C1053      C1054   1.409       .  A
C1053     Br1061   1.928       .  S
C1054     Br1065   1.929       .  S
C1055      C1056   1.406       .  A
C1055      C1060   1.408       .  A
C1056      C1057   1.405       .  A
C1056     Br1067   1.934       .  S
C1057      C1058   1.418       .  A
C1057     Br1063   1.936       .  S
C1058      C1059   1.414       .  A
C1059      C1060   1.409       .  A
C1059     Br1068   1.930       .  S
C1060     Br1064   1.929       .  S
C1069      C1070   1.410       .  A
C1069      C1074   1.410       .  A
C1070      C1071   1.412       .  A
C1070     Br1082   1.927       .  S
C1071      C1072   1.411       .  A
C1071     Br1086   1.928       .  S
C1072      C1075   1.488       .  S
C1072      C1073   1.409       .  A
C1073      C1074   1.405       .  A
C1073     Br1081   1.932       .  S
C1074     Br1085   1.929       .  S
C1075      C1076   1.407       .  A
C1075      C1080   1.406       .  A
C1076      C1077   1.410       .  A
C1076     Br1087   1.933       .  S
C1077      C1078   1.422       .  A
C1077     Br1083   1.932       .  S
C1078      C1079   1.420       .  A
C1079      C1080   1.410       .  A
C1079     Br1088   1.934       .  S
C1080     Br1084   1.930       .  S
C1089      C1090   1.415       .  A
C1089      C1094   1.415       .  A
C1090      C1091   1.409       .  A
C1090     Br1102   1.931       .  S
C1091      C1092   1.408       .  A
C1091     Br1106   1.931       .  S
C1092      C1095   1.486       .  S
C1092      C1093   1.409       .  A
C1093      C1094   1.407       .  A
C1093     Br1101   1.933       .  S
C1094     Br1105   1.934       .  S
C1095      C1096   1.408       .  A
C1095      C1100   1.407       .  A
C1096      C1097   1.407       .  A
C1096     Br1107   1.934       .  S
C1097      C1098   1.419       .  A
C1097     Br1103   1.932       .  S
C1098      C1099   1.418       .  A
C1099      C1100   1.408       .  A
C1099     Br1108   1.934       .  S
C1100     Br1104   1.929       .  S
C1109      C1110   1.413       .  A
C1109      C1114   1.409       .  A
C1110      C1111   1.406       .  A
C1110     Br1122   1.934       .  S
C1111      C1112   1.410       .  A
C1111     Br1126   1.933       .  S
C1112      C1115   1.489       .  S
C1112      C1113   1.412       .  A
C1113      C1114   1.411       .  A
C1113     Br1121   1.928       .  S
C1114     Br1125   1.928       .  S
C1115      C1116   1.409       .  A
C1115      C1120   1.409       .  A
C1116      C1117   1.411       .  A
C1116     Br1127   1.930       .  S
C1117      C1118   1.416       .  A
C1117     Br1123   1.932       .  S
C1118      C1119   1.416       .  A
C1119      C1120   1.408       .  A
C1119     Br1128   1.934       .  S
C1120     Br1124   1.933       .  S
C1129      C1130   1.416       .  A
C1129      C1134   1.416       .  A
C1130      C1131   1.407       .  A
C1130     Br1142   1.932       .  S
C1131      C1132   1.406       .  A
C1131     Br1146   1.931       .  S
C1132      C1135   1.481       .  S
C1132      C1133   1.408       .  A
C1133      C1134   1.406       .  A
C1133     Br1141   1.932       .  S
C1134     Br1145   1.935       .  S
C1135      C1136   1.410       .  A
C1135      C1140   1.409       .  A
C1136      C1137   1.409       .  A
C1136     Br1147   1.928       .  S
C1137      C1138   1.410       .  A
C1137     Br1143   1.928       .  S
C1138      C1139   1.409       .  A
C1139      C1140   1.401       .  A
C1139     Br1148   1.933       .  S
C1140     Br1144   1.933       .  S
C1149      C1150   1.413       .  A
C1149      C1154   1.414       .  A
C1150      C1151   1.409       .  A
C1150     Br1162   1.930       .  S
C1151      C1152   1.408       .  A
C1151     Br1166   1.929       .  S
C1152      C1155   1.483       .  S
C1152      C1153   1.407       .  A
C1153      C1154   1.405       .  A
C1153     Br1161   1.932       .  S
C1154     Br1165   1.934       .  S
C1155      C1156   1.409       .  A
C1155      C1160   1.408       .  A
C1156      C1157   1.405       .  A
C1156     Br1167   1.931       .  S
C1157      C1158   1.411       .  A
C1157     Br1163   1.934       .  S
C1158      C1159   1.411       .  A
C1159      C1160   1.408       .  A
C1159     Br1168   1.929       .  S
C1160     Br1164   1.928       .  S
C1169      C1170   1.408       .  A
C1169      C1174   1.410       .  A
C1170      C1171   1.408       .  A
C1170     Br1182   1.929       .  S
C1171      C1172   1.411       .  A
C1171     Br1186   1.929       .  S
C1172      C1175   1.488       .  S
C1172      C1173   1.411       .  A
C1173      C1174   1.410       .  A
C1173     Br1181   1.929       .  S
C1174     Br1185   1.930       .  S
C1175      C1176   1.411       .  A
C1175      C1180   1.410       .  A
C1176      C1177   1.412       .  A
C1176     Br1187   1.927       .  S
C1177      C1178   1.410       .  A
C1177     Br1183   1.927       .  S
C1178      C1179   1.410       .  A
C1179      C1180   1.406       .  A
C1179     Br1188   1.932   1_455  S
C1180     Br1184   1.932   1_455  S
C1189      C1190   1.416       .  A
C1189      C1194   1.416       .  A
C1190      C1191   1.411       .  A
C1190     Br1202   1.930       .  S
C1191      C1192   1.408       .  A
C1191     Br1206   1.929       .  S
C1192      C1195   1.486       .  S
C1192      C1193   1.407       .  A
C1193      C1194   1.405       .  A
C1193     Br1201   1.932       .  S
C1194     Br1205   1.936       .  S
C1195      C1196   1.409       .  A
C1195      C1200   1.409       .  A
C1196      C1197   1.410       .  A
C1196     Br1207   1.928       .  S
C1197      C1198   1.411       .  A
C1197     Br1203   1.929       .  S
C1198      C1199   1.413       .  A
C1199      C1200   1.406       .  A
C1199     Br1208   1.933       .  S
C1200     Br1204   1.932       .  S
C1209      C1210   1.418       .  A
C1209      C1214   1.418       .  A
C1210      C1211   1.413       .  A
C1210     Br1222   1.930       .  S
C1211      C1212   1.407       .  A
C1211     Br1226   1.929       .  S
C1212      C1215   1.486       .  S
C1212      C1213   1.406       .  A
C1213      C1214   1.405       .  A
C1213     Br1221   1.935   1_554  S
C1214     Br1225   1.933   1_554  S
C1215      C1216   1.409       .  A
C1215      C1220   1.409       .  A
C1216      C1217   1.409       .  A
C1216     Br1227   1.929       .  S
C1217      C1218   1.413       .  A
C1217     Br1223   1.930       .  S
C1218      C1219   1.412       .  A
C1219      C1220   1.407       .  A
C1219     Br1228   1.933   1_554  S
C1220     Br1224   1.930   1_554  S
C1229      C1230   1.413       .  A
C1229      C1234   1.410       .  A
C1230      C1231   1.407       .  A
C1230     Br1242   1.934   1_556  S
C1231      C1232   1.409       .  A
C1231     Br1246   1.931   1_556  S
C1232      C1235   1.486       .  S
C1232      C1233   1.410       .  A
C1233      C1234   1.409       .  A
C1233     Br1241   1.929       .  S
C1234     Br1245   1.929       .  S
C1235      C1236   1.406       .  A
C1235      C1240   1.407       .  A
C1236      C1237   1.409       .  A
C1236     Br1247   1.930       .  S
C1237      C1238   1.418       .  A
C1237     Br1243   1.933       .  S
C1238      C1239   1.421       .  A
C1239      C1240   1.409       .  A
C1239     Br1248   1.934   1_556  S
C1240     Br1244   1.934   1_556  S
C1249      C1250   1.414       .  A
C1249      C1254   1.412       .  A
C1250      C1251   1.408       .  A
C1250     Br1262   1.934   1_455  S
C1251      C1252   1.409       .  A
C1251     Br1266   1.930   1_455  S
C1252      C1255   1.489       .  S
C1252      C1253   1.410       .  A
C1253      C1254   1.409       .  A
C1253     Br1261   1.929       .  S
C1254     Br1265   1.930       .  S
C1255      C1256   1.407       .  A
C1255      C1260   1.407       .  A
C1256      C1257   1.408       .  A
C1256     Br1267   1.936       .  S
C1257      C1258   1.420       .  A
C1257     Br1263   1.929       .  S
C1258      C1259   1.418       .  A
C1259      C1260   1.412       .  A
C1259     Br1268   1.928       .  S
C1260     Br1264   1.930       .  S
C1269      C1270   1.416       .  A
C1269      C1274   1.412       .  A
C1270      C1271   1.408       .  A
C1270     Br1282   1.934   1_565  S
C1271      C1272   1.409       .  A
C1271     Br1286   1.932   1_565  S
C1272      C1275   1.493       .  S
C1272      C1273   1.411       .  A
C1273      C1274   1.413       .  A
C1273     Br1281   1.928       .  S
C1274     Br1285   1.928       .  S
C1275      C1276   1.409       .  A
C1275      C1280   1.409       .  A
C1276      C1277   1.412       .  A
C1276     Br1287   1.930       .  S
C1277      C1278   1.416       .  A
C1277     Br1283   1.930       .  S
C1278      C1279   1.417   1_565  A
C1279      C1280   1.410   1_545  A
C1279     Br1288   1.934       .  S
C1280     Br1284   1.931   1_565  S
C1289      C1290   1.417       .  A
C1289      C1294   1.417       .  A
C1290      C1291   1.412       .  A
C1290     Br1302   1.930       .  S
C1291      C1292   1.410       .  A
C1291     Br1306   1.931       .  S
C1292      C1295   1.492       .  S
C1292      C1293   1.410       .  A
C1293      C1294   1.408       .  A
C1293     Br1301   1.933   1_545  S
C1294     Br1305   1.935   1_545  S
C1295      C1296   1.413       .  A
C1295      C1300   1.412       .  A
C1296      C1297   1.412       .  A
C1296     Br1307   1.928       .  S
C1297      C1298   1.409       .  A
C1297     Br1303   1.926       .  S
C1298      C1299   1.406       .  A
C1299      C1300   1.406       .  A
C1299     Br1308   1.926       .  S
C1300     Br1304   1.931       .  S
C1309      C1310   1.417       .  A
C1309      C1314   1.414       .  A
C1310      C1311   1.404       .  A
C1310     Br1322   1.936   1_655  S
C1311      C1312   1.407       .  A
C1311     Br1326   1.934       .  S
C1312      C1315   1.483       .  S
C1312      C1313   1.408       .  A
C1313      C1314   1.411       .  A
C1313     Br1321   1.929       .  S
C1314     Br1325   1.928       .  S
C1315      C1316   1.410       .  A
C1315      C1320   1.408       .  A
C1316      C1317   1.410       .  A
C1316     Br1327   1.928       .  S
C1317      C1318   1.411       .  A
C1317     Br1323   1.929       .  S
C1318      C1319   1.413       .  A
C1319      C1320   1.402       .  A
C1319     Br1328   1.936   1_655  S
C1320     Br1324   1.932   1_655  S
