geometry optimzed in LAMMPS
_audit_creation_date              2020-11-30 
_audit_creation_method            'lammps2cif' 
_symmetry_space_group_name_H-M    'P1' 
_symmetry_Int_Tables_number       1 
_symmetry_cell_setting            triclinic 
loop_ 
_symmetry_equiv_pos_as_xyz 
  x,y,z 
_cell_length_a                    25.987209907504237 
_cell_length_b                    25.640806809695132 
_cell_length_c                    25.558496465239493 
_cell_angle_alpha                 89.45505931909751 
_cell_angle_beta                  89.78303340670345 
_cell_angle_gamma                 90.19380018537282 
loop_ 
_atom_site_label 
_atom_site_type_symbol 
_atom_site_fract_x 
_atom_site_fract_y 
_atom_site_fract_z 
_atom_site_charge 
C1          C  0.85934544  0.85968153  0.87341403    -0.01830
N2          N  0.77488898  0.93914219  0.39278802    -0.05460
N3          N  0.73289534  0.94472333  0.42271607    -0.57580
N4          N  0.85177935  0.99736296  0.30164832    -0.05140
N5          N  0.87846361  0.02532534  0.26788382    -0.59700
N6          N  0.82150675  0.96358490  0.27767524    -0.04730
N7          N  0.82918873  0.96805615  0.22661681    -0.57550
N8          N  0.81123094  0.96989452  0.41042128    -0.04410
N9          N  0.79575046  0.99587549  0.45173162    -0.60060
C10         C  0.74703124  0.98017756  0.45994287     0.96720
C11         C  0.86558119  0.00614020  0.22138093     0.96500
N12         N  0.99789123  0.95947487  0.33875562    -0.05640
N13         N  0.03766228  0.97257696  0.30874251    -0.58150
N14         N  0.91800773  0.94591513  0.44716320    -0.03760
N15         N  0.88756968  0.93735082  0.48800831    -0.59410
N16         N  0.95306095  0.90886931  0.44460581    -0.05670
N17         N  0.94623759  0.87520183  0.48347993    -0.58420
N18         N  0.96280874  0.99564668  0.33745692    -0.03400
N19         N  0.97779316  0.03402283  0.30518298    -0.59490
Mn20       Mn  0.88615541  0.97961930  0.37511032     1.18440
C21         C  0.02485874  0.01903280  0.28724233     0.98800
C22         C  0.90463852  0.89246523  0.50971130     0.99470
N23         N  0.79774968  0.84190911  0.24661781    -0.05690
N24         N  0.75824320  0.82718220  0.21687448    -0.62000
N25         N  0.81448045  0.77869149  0.35454065    -0.04490
N26         N  0.79487948  0.73179431  0.36082164    -0.62670
N27         N  0.77761251  0.81439651  0.35672773    -0.05200
N28         N  0.73250144  0.79140182  0.36400676    -0.62270
N29         N  0.83434824  0.80651388  0.24397532    -0.04090
N30         N  0.82000356  0.76824769  0.21229445    -0.62960
Mn31       Mn  0.79049447  0.89177975  0.31868287     1.10660
C32         C  0.77283965  0.78165530  0.19425286     1.00020
C33         C  0.74405929  0.73999993  0.36657436     1.00100
N34         N  0.97017551  0.80442085  0.39756343    -0.05210
N35         N  0.99689576  0.78623834  0.43692743    -0.60580
N36         N  0.95460508  0.82540291  0.26701731    -0.04520
N37         N  0.95414705  0.83852628  0.21661573    -0.57310
N38         N  0.99029554  0.85323687  0.29089317    -0.05840
N39         N  0.01432087  0.88387921  0.25753526    -0.60150
N40         N  0.93667531  0.77034465  0.38090937    -0.04820
N41         N  0.94021621  0.72701569  0.41027527    -0.57330
Mn42       Mn  0.97981850  0.88136945  0.36878329     1.20190
Mn43       Mn  0.88683412  0.79322964  0.31160999     1.10090
Cl44       Cl  0.88492343  0.88590314  0.34362489    -0.85300
C45         C  0.97817503  0.73832708  0.44557166     0.97030
C46         C  0.99113685  0.87599985  0.21174483     0.96830
N47         N  0.94837847  0.45635188  0.91102480    -0.05460
N48         N  0.93760125  0.49893765  0.88371387    -0.57580
N49         N  0.97082182  0.34612937  0.98575999    -0.05140
N50         N  0.99024354  0.31894077  0.02532053    -0.59700
N51         N  0.00271611  0.34713462  0.94628243    -0.04730
N52         N  0.04486928  0.31978824  0.95834725    -0.57550
N53         N  0.91547361  0.45148902  0.95023384    -0.04410
N54         N  0.88228997  0.49022760  0.94900194    -0.60060
C55         C  0.89621156  0.52027797  0.90760285     0.96720
C56         C  0.03670367  0.30222289  0.00842581     0.96500
N57         N  0.83395836  0.27338221  0.95568450    -0.05640
N58         N  0.84500364  0.22270547  0.95405067    -0.58150
N59         N  0.81436896  0.40473404  0.98356547    -0.03760
N60         N  0.79972801  0.44435504  0.01261197    -0.59410
N61         N  0.77698377  0.38820372  0.95385551    -0.05670
N62         N  0.73565346  0.41823479  0.96167957    -0.58420
N63         N  0.86623372  0.29637458  0.98821710    -0.03400
N64         N  0.89871358  0.26273124  0.00793750    -0.59490
Mn65       Mn  0.89179477  0.37557340  0.97937103     1.18440
C66         C  0.88629110  0.21704079  0.98663405     0.98800
C67         C  0.75054850  0.45315491  0.99902337     0.99470
N68         N  0.98439395  0.31422463  0.83041179    -0.05690
N69         N  0.00045498  0.27673987  0.86167051    -0.62000
N70         N  0.92561125  0.41540938  0.76670207    -0.04490
N71         N  0.92965676  0.44399880  0.72301183    -0.62670
N72         N  0.96223865  0.42859190  0.79900927    -0.05200
N73         N  0.99081501  0.46673969  0.77932715    -0.62270
N74         N  0.94533818  0.29712141  0.80145781    -0.04090
N75         N  0.93451152  0.24847884  0.81531200    -0.62960
Mn76       Mn  0.97770729  0.38728266  0.87162114     1.10660
C77         C  0.96756957  0.23738457  0.85414743     1.00020
C78         C  0.97018635  0.47660843  0.73206027     1.00100
N79         N  0.77128271  0.37704068  0.83267557    -0.05210
N80         N  0.74066700  0.41598231  0.84337463    -0.60580
N81         N  0.82777968  0.27410804  0.79128382    -0.04520
N82         N  0.81245210  0.24724242  0.75009331    -0.57310
N83         N  0.79798782  0.26386690  0.83181059    -0.05840
N84         N  0.76115230  0.23052321  0.81771654    -0.60150
N85         N  0.80432451  0.39019077  0.79495276    -0.04820
N86         N  0.79718531  0.43932572  0.78133913    -0.57330
Mn87       Mn  0.79268528  0.32315734  0.89515491     1.20190
Mn88       Mn  0.87651764  0.34513618  0.78485036     1.10090
Cl89       Cl  0.88413582  0.35736154  0.88209505    -0.85300
C90         C  0.75719998  0.45427322  0.81169283     0.97030
C91         C  0.77088414  0.21965884  0.76650095     0.96830
N92         N  0.39227989  0.75391898  0.93418090    -0.05460
N93         N  0.42376278  0.71304054  0.94121144    -0.57580
N94         N  0.29344445  0.83681477  0.96765524    -0.05140
N95         N  0.25549918  0.86711133  0.98198936    -0.59700
N96         N  0.27800798  0.80499686  0.92994838    -0.04730
N97         N  0.22925634  0.81451286  0.91833955    -0.57550
N98         N  0.40093848  0.78768715  0.97053786    -0.04410
N99         N  0.43683785  0.77170814  0.00292735    -0.60060
C100        C  0.45183210  0.72523298  0.98490368     0.96720
C101        C  0.21607940  0.85358830  0.95083686     0.96500
N102        N  0.36718492  0.98655120  0.96336196    -0.05640
N103        N  0.34604583  0.02960528  0.98272462    -0.58150
N104        N  0.45137166  0.88549481  0.94642761    -0.03760
N105        N  0.49196433  0.85430307  0.94720351    -0.59410
N106        N  0.45607749  0.91881891  0.90752250    -0.05670
N107        N  0.49922971  0.91106400  0.88178803    -0.58420
N108        N  0.35206994  0.94600526  0.99111116    -0.03400
N109        N  0.32146907  0.96072344  0.02991760    -0.59490
Mn110      Mn  0.37323896  0.86497133  0.97042676     1.18440
C111        C  0.31757176  0.01324631  0.02471516     0.98800
C112        C  0.52252266  0.87119147  0.90705325     0.99470
N113        N  0.27953849  0.78301066  0.80474049    -0.05690
N114        N  0.24536887  0.74670030  0.79178514    -0.62000
N115        N  0.40415652  0.81462236  0.78485482    -0.04490
N116        N  0.45360696  0.82076000  0.77551459    -0.62670
N117        N  0.39673759  0.77409463  0.81640739    -0.05200
N118        N  0.44113523  0.75323244  0.82941534    -0.62270
N119        N  0.28636013  0.81564181  0.76522844    -0.04090
N120        N  0.25636664  0.80230388  0.72549105    -0.62960
Mn121      Mn  0.33488397  0.77677265  0.87150007     1.10660
C122        C  0.23053794  0.75908824  0.74231266     1.00020
C123        C  0.47600179  0.78280724  0.80396571     1.00100
N124        N  0.42689844  0.96698858  0.80049210    -0.05210
N125        N  0.46597303  0.99648083  0.78449157    -0.60580
N126        N  0.30769601  0.90643580  0.83525779    -0.04520
N127        N  0.25767064  0.91830330  0.83435564    -0.57310
N128        N  0.32836207  0.92572077  0.87773756    -0.05840
N129        N  0.29185127  0.94737586  0.90640973    -0.60150
N130        N  0.41051700  0.93751173  0.76166856    -0.04820
N131        N  0.43848916  0.94771782  0.71897343    -0.57330
Mn132      Mn  0.39771853  0.97339405  0.88181196     1.20190
Mn133      Mn  0.34779462  0.87656369  0.76514147     1.10090
Cl134      Cl  0.35872894  0.87648712  0.86895543    -0.85300
C135        C  0.47305832  0.98438167  0.73385296     0.97030
C136        C  0.24865350  0.94392276  0.87959625     0.96830
C137        C  0.38044930  0.39730184  0.85662149    -0.01830
C138        C  0.36865823  0.88114189  0.37446763    -0.01830
C139        C  0.87777272  0.34953407  0.37796967    -0.01830
N140        N  0.21677540  0.06872204  0.71365781    -0.05460
N141        N  0.21548522  0.09098763  0.76026426    -0.57580
N142        N  0.19652201  0.00998324  0.59383202    -0.05140
N143        N  0.20694899  0.97445758  0.55834138    -0.59700
N144        N  0.23044388  0.04776159  0.59217893    -0.04730
N145        N  0.26465299  0.03914684  0.55470144    -0.57550
N146        N  0.18515519  0.02818524  0.71324328    -0.04410
N147        N  0.16372408  0.02218293  0.75928629    -0.60060
C148        C  0.18102020  0.06218258  0.78757711     0.96720
C149        C  0.24952167  0.99313154  0.53396147     0.96500
N150        N  0.03945941  0.03542973  0.57953732    -0.05640
N151        N  0.99485640  0.01208048  0.57362784    -0.58150
N152        N  0.06846393  0.01016470  0.70412205    -0.03760
N153        N  0.05795003  0.97605435  0.74186438    -0.59410
N154        N  0.02932628  0.04133468  0.69628411    -0.05670
N155        N  0.99140346  0.02899942  0.72868758    -0.58420
N156        N  0.07546682  0.99983303  0.58913560    -0.03400
N157        N  0.05427849  0.95308502  0.59161860    -0.59490
Mn158      Mn  0.13325889  0.01110234  0.64930701     1.18440
C159        C  0.00411681  0.96176654  0.58409920     0.98800
C160        C  0.01037286  0.98964474  0.75837424     0.99470
N161        N  0.20825502  0.16294137  0.57426771    -0.05690
N162        N  0.20890591  0.13866841  0.52893337    -0.62000
N163        N  0.18370094  0.21762568  0.69532538    -0.04490
N164        N  0.19549292  0.25944747  0.72328802    -0.62670
N165        N  0.22297362  0.18583716  0.69390431    -0.05200
N166        N  0.26185712  0.20462139  0.72145030    -0.62270
N167        N  0.17126580  0.19838811  0.57422128    -0.04090
N168        N  0.14822804  0.19838991  0.52844030    -0.62960
Mn169      Mn  0.22345556  0.11652375  0.64353844     1.10660
C170        C  0.17021729  0.15987671  0.50100474     1.00020
C171        C  0.24421239  0.25038768  0.74022164     1.00100
N172        N  0.02159616  0.16096527  0.69017854    -0.05210
N173        N  0.99944330  0.14097894  0.73156129    -0.60580
N174        N  0.05695537  0.20318810  0.58063916    -0.04520
N175        N  0.04621977  0.24057470  0.54660380    -0.57310
N176        N  0.02803806  0.16219423  0.57225606    -0.05840
N177        N  0.99572568  0.17151168  0.53313098    -0.60150
N178        N  0.06208452  0.18915502  0.70338691    -0.04820
N179        N  0.07072338  0.18298612  0.75435025    -0.57330
Mn180      Mn  0.02966714  0.10075976  0.63241498     1.20190
Mn181      Mn  0.11875175  0.20589560  0.64031010     1.10090
Cl182      Cl  0.12626900  0.10857204  0.64104292    -0.85300
C183        C  0.03120281  0.15180717  0.77064863     0.97030
C184        C  0.00819122  0.22066815  0.51686651     0.96830
N185        N  0.07168220  0.68460666  0.20647092    -0.05460
N186        N  0.08848788  0.73286999  0.19910415    -0.57580
N187        N  0.02817851  0.55738181  0.20277846    -0.05140
N188        N  0.99471811  0.52012135  0.21489946    -0.59700
N189        N  0.05895487  0.56628922  0.24235256    -0.04730
N190        N  0.04753360  0.53437965  0.28198412    -0.57550
N191        N  0.02927884  0.67675210  0.17941593    -0.04410
N192        N  0.01646133  0.72002398  0.15482906    -0.60060
C193        C  0.05430642  0.75377626  0.16572603     0.96720
C194        C  0.00736609  0.50562962  0.26415184     0.96500
N195        N  0.06977349  0.54926939  0.03709813    -0.05640
N196        N  0.04543270  0.54534370  0.99236818    -0.58150
N197        N  0.00887931  0.65941210  0.06480971    -0.03760
N198        N  0.96726817  0.68727549  0.05292115    -0.59410
N199        N  0.04202117  0.66188720  0.02662479    -0.05670
N200        N  0.02437463  0.69111831  0.98795717    -0.58420
N201        N  0.03544066  0.54502238  0.07619798    -0.03400
N202        N  0.98925277  0.53863119  0.05665741    -0.59490
Mn203      Mn  0.02594205  0.60816409  0.13268224     1.18440
C204        C  0.99544223  0.54491564  0.00512574     0.98800
C205        C  0.97771298  0.70721196  0.00441605     0.99470
N206        N  0.13806045  0.57440011  0.16468521    -0.05690
N207        N  0.12640515  0.52352780  0.16573195    -0.62000
N208        N  0.21743345  0.69127948  0.18809641    -0.04490
N209        N  0.24975598  0.72917553  0.20067134    -0.62670
N210        N  0.18764627  0.67959253  0.22854172    -0.05200
N211        N  0.19944714  0.70971718  0.26855932    -0.62270
N212        N  0.17008665  0.58397568  0.12603600    -0.04090
N213        N  0.18024012  0.53963780  0.10152527    -0.62960
Mn214      Mn  0.12366100  0.62276357  0.23385057     1.10660
C215        C  0.15145957  0.50282683  0.12451403     1.00020
C216        C  0.23772221  0.74064620  0.25058995     1.00100
N217        N  0.14927294  0.69565249  0.02977875    -0.05210
N218        N  0.12221459  0.73441704  0.01175428    -0.60580
N219        N  0.23330081  0.60430702  0.03899026    -0.04520
N220        N  0.27485060  0.57992524  0.02130336    -0.57310
N221        N  0.19244712  0.58853029  0.01317637    -0.05840
N222        N  0.20560591  0.55522877  0.97642725    -0.60150
N223        N  0.17868147  0.71064373  0.06843666    -0.04820
N224        N  0.17232773  0.76159794  0.07629116    -0.57330
Mn225      Mn  0.11537807  0.62130747  0.02821912     1.20190
Mn226      Mn  0.22313020  0.65003765  0.11297669     1.10090
Cl227      Cl  0.12372172  0.62411056  0.12836931    -0.85300
C228        C  0.13545570  0.77514439  0.04084401     0.97030
C229        C  0.25712288  0.54970118  0.98170101     0.96830
N230        N  0.66595896  0.06023525  0.01091655    -0.05460
N231        N  0.69841261  0.04314307  0.97510563    -0.57580
N232        N  0.54075746  0.04903374  0.04236751    -0.05140
N233        N  0.53048074  0.00228288  0.02501941    -0.59700
N234        N  0.55426904  0.08020967  0.00264968    -0.04730
N235        N  0.55682139  0.05243090  0.95973337    -0.57550
N236        N  0.65622575  0.02388618  0.04595737    -0.04410
N237        N  0.68249782  0.98090866  0.03435642    -0.60060
C238        C  0.70923810  0.99364119  0.98996643     0.96720
C239        C  0.54595917  0.00355279  0.97520908     0.96500
N240        N  0.53755382  0.07918362  0.20307432    -0.05640
N241        N  0.50879758  0.06544943  0.24382918    -0.58150
N242        N  0.65058523  0.03412573  0.16846651    -0.03760
N243        N  0.69565007  0.01816525  0.15212892    -0.59410
N244        N  0.65599714  0.07298254  0.20197892    -0.05670
N245        N  0.70519271  0.08456644  0.20622269    -0.58420
N246        N  0.53439383  0.04384735  0.16648365    -0.03400
N247        N  0.50347954  0.00550816  0.18170614    -0.59490
Mn248      Mn  0.59436152  0.03768540  0.10662803     1.18440
C249        C  0.48723182  0.01953452  0.22990906     0.98800
C250        C  0.72880515  0.05103299  0.17398792     0.99470
N251        N  0.57608782  0.20377109  0.99970427    -0.05690
N252        N  0.54359667  0.21757419  0.96233877    -0.62000
N253        N  0.69645905  0.21024276  0.05877756    -0.04490
N254        N  0.74311778  0.20594741  0.07908519    -0.62670
N255        N  0.69099151  0.17689741  0.02004064    -0.05200
N256        N  0.73395415  0.15138533  0.01276707    -0.62270
N257        N  0.58159247  0.24144743  0.03346216    -0.04090
N258        N  0.55229182  0.28153297  0.02015738    -0.62960
Mn259      Mn  0.62089273  0.13215445  0.00762268     1.10660
C260        C  0.52872648  0.26634148  0.97558854     1.00020
C261        C  0.76541369  0.16839222  0.05026938     1.00100
N262        N  0.66451736  0.19369929  0.21322815    -0.05210
N263        N  0.69519575  0.20071883  0.25405855    -0.60580
N264        N  0.55873193  0.23788650  0.15030412    -0.04520
N265        N  0.51802776  0.25474496  0.12482055    -0.57310
N266        N  0.54549720  0.20002391  0.18352414    -0.05840
N267        N  0.49573467  0.19015096  0.17878874    -0.60150
N268        N  0.67551881  0.22764183  0.17634552    -0.04820
N269        N  0.71365140  0.25849410  0.19108916    -0.57330
Mn270      Mn  0.60027213  0.13696450  0.20376941     1.20190
Mn271      Mn  0.62923309  0.23214108  0.10478121     1.10090
Cl272      Cl  0.61078964  0.13459781  0.10577307    -0.85300
C273        C  0.72608642  0.24137061  0.23978424     0.97030
C274        C  0.47954912  0.22382320  0.14130447     0.96830
C275        C  0.62822124  0.62324670  0.09834382    -0.01830
C276        C  0.09664093  0.62459774  0.60526349    -0.01830
N277        N  0.34130179  0.30079156  0.46828348    -0.05460
N278        N  0.32034868  0.25533759  0.47910926    -0.57580
N279        N  0.28432656  0.31095360  0.35360480    -0.05140
N280        N  0.24788099  0.29900328  0.31995955    -0.59700
N281        N  0.31980864  0.27542747  0.35463712    -0.04730
N282        N  0.30818415  0.23754518  0.32180558    -0.57550
N283        N  0.30467470  0.33708649  0.46738966    -0.04410
N284        N  0.26019223  0.31527331  0.47836320    -0.60060
C285        C  0.26970220  0.26412182  0.47862397     0.96720
C286        C  0.26367063  0.25359574  0.29986357     0.96500
N287        N  0.31547685  0.45249382  0.30380718    -0.05640
N288        N  0.30526164  0.45941746  0.25319624    -0.58150
N289        N  0.28147178  0.45788349  0.43266940    -0.03760
N290        N  0.24736813  0.46980670  0.46882860    -0.59410
N291        N  0.30515233  0.49977743  0.41465432    -0.05670
N292        N  0.28801817  0.54150040  0.43956922    -0.58420
N293        N  0.28251632  0.41905000  0.32363438    -0.03400
N294        N  0.25097631  0.40143017  0.28844739    -0.59490
Mn295      Mn  0.29094820  0.38228134  0.39613829     1.18440
C296        C  0.26510341  0.42598741  0.24468716     0.98800
C297        C  0.25198795  0.52187664  0.47329538     0.99470
N298        N  0.43167193  0.28045797  0.32943816    -0.05690
N299        N  0.40678369  0.25614777  0.29259719    -0.62000
N300        N  0.50267315  0.31541668  0.42377198    -0.04490
N301        N  0.54491198  0.30179705  0.44970916    -0.62670
N302        N  0.46341366  0.28765077  0.44100270    -0.05200
N303        N  0.47783358  0.25424933  0.47766882    -0.62270
N304        N  0.45214802  0.32385830  0.31114912    -0.04090
N305        N  0.43866026  0.33087617  0.26160121    -0.62960
Mn306      Mn  0.39006586  0.28813570  0.39989803     1.10660
C307        C  0.40897799  0.28851768  0.25156579     1.00020
C308        C  0.52858098  0.26361771  0.48341983     1.00100
N309        N  0.39098358  0.43234971  0.42146396    -0.05210
N310        N  0.37173044  0.43873617  0.46948803    -0.60580
N311        N  0.47780876  0.44735119  0.30917044    -0.04520
N312        N  0.51431525  0.45972585  0.27487806    -0.57310
N313        N  0.44058860  0.48264403  0.30698965    -0.05840
N314        N  0.45262200  0.51919561  0.27181392    -0.60150
N315        N  0.42789171  0.39744178  0.42352425    -0.04820
N316        N  0.43299892  0.38033671  0.47285502    -0.57330
Mn317      Mn  0.37156107  0.49004134  0.35887509     1.20190
Mn318      Mn  0.48875420  0.38048482  0.36507467     1.10090
Cl319      Cl  0.38865223  0.38889754  0.37868944    -0.85300
C320        C  0.39563686  0.40390400  0.50016206     0.97030
C321        C  0.49850436  0.50446300  0.25191438     0.96830
N322        N  0.59004151  0.70717323  0.67409742    -0.05460
N323        N  0.58878597  0.70280366  0.72566235    -0.57580
N324        N  0.58376074  0.74949009  0.54838262    -0.05140
N325        N  0.56678644  0.78307910  0.51302936    -0.59700
N326        N  0.54918999  0.71305744  0.55809061    -0.04730
N327        N  0.50713789  0.72233740  0.53049979    -0.57550
N328        N  0.62897222  0.73698475  0.65988885    -0.04410
N329        N  0.65358191  0.75421878  0.70114471    -0.60060
C330        C  0.62901652  0.73227911  0.74203407     0.96720
C331        C  0.51911758  0.76549019  0.50199361     0.96500
N332        N  0.68811944  0.63130600  0.54863625    -0.05640
N333        N  0.68407552  0.60281302  0.50538676    -0.58150
N334        N  0.73621361  0.74573219  0.61807430    -0.03760
N335        N  0.74710528  0.78339171  0.65118910    -0.59410
N336        N  0.76709316  0.70590424  0.62596416    -0.05670
N337        N  0.79860352  0.71637086  0.66516448    -0.58420
N338        N  0.65488552  0.66937325  0.54643464    -0.03400
N339        N  0.62812872  0.66615447  0.50226975    -0.59490
Mn340      Mn  0.66069287  0.74607678  0.58155200     1.18440
C341        C  0.64574786  0.62416621  0.47717899     0.98800
C342        C  0.78552989  0.76472466  0.68084365     0.99470
N343        N  0.54746189  0.58314901  0.56786135    -0.05690
N344        N  0.50051496  0.56403635  0.56500192    -0.62000
N345        N  0.58527804  0.55459417  0.68320840    -0.04490
N346        N  0.56772936  0.51695862  0.71417957    -0.62670
N347        N  0.55328596  0.59356530  0.68226269    -0.05200
N348        N  0.51236218  0.58286694  0.71184686    -0.62270
N349        N  0.58140261  0.54405610  0.56812592    -0.04090
N350        N  0.55707388  0.49925610  0.56471451    -0.62960
Mn351      Mn  0.55919729  0.65120633  0.61918234     1.10660
C352        C  0.50711698  0.51209487  0.56422594     1.00020
C353        C  0.52227728  0.53497813  0.73233976     1.00100
N354        N  0.73552837  0.60069234  0.67423995    -0.05210
N355        N  0.74714078  0.62498519  0.71823717    -0.60580
N356        N  0.70805043  0.52010857  0.57077136    -0.04520
N357        N  0.71063472  0.47574761  0.54467095    -0.57310
N358        N  0.75151497  0.54622828  0.56584703    -0.05840
N359        N  0.78371676  0.52109345  0.53492505    -0.60150
N360        N  0.69874652  0.56642099  0.68278272    -0.04820
N361        N  0.68337476  0.56869418  0.73155346    -0.57330
Mn362      Mn  0.75893441  0.62644808  0.59532862     1.20190
Mn363      Mn  0.64525943  0.54565907  0.62401876     1.10090
Cl364      Cl  0.65678678  0.64260457  0.60212661    -0.85300
C365        C  0.71322607  0.60536203  0.75359322     0.97030
C366        C  0.75795387  0.47704429  0.52237792     0.96830
C367        C  0.63211582  0.10574943  0.61595146    -0.01830
C368        C  0.15262746  0.14075902  0.13467428    -0.01830
C369        C  0.20940975  0.22046385  0.16674940     0.24260
C370        C  0.17825710  0.17607264  0.17856379    -0.23850
C371        C  0.16646015  0.17061815  0.23316027     0.19160
C372        C  0.19829920  0.19118673  0.27115666     0.24200
C373        C  0.23632746  0.22681865  0.25773386    -0.23790
C374        C  0.23890528  0.24467734  0.20575313     0.19100
F375        F  0.26691369  0.28786384  0.19341740    -0.13750
F376        F  0.20394034  0.24693767  0.12096829    -0.16120
F377        F  0.18782348  0.18063828  0.32193971    -0.16120
F378        F  0.12026886  0.15307875  0.25107028    -0.13750
C379        C  0.62601660  0.16274350  0.52859158     0.24260
C380        C  0.60981098  0.15161196  0.58113291    -0.23850
C381        C  0.57398334  0.18709167  0.60290317     0.19160
C382        C  0.54874084  0.22435094  0.57157029     0.24200
C383        C  0.56154135  0.23112722  0.51848215    -0.23790
C384        C  0.60182172  0.20141120  0.49803163     0.19100
F385        F  0.61638236  0.20808065  0.44732046    -0.13750
F386        F  0.66638623  0.13801489  0.50617209    -0.16120
F387        F  0.51078449  0.25325449  0.59320408    -0.16120
F388        F  0.56023183  0.18322481  0.65405731    -0.13750
C389        C  0.47778954  0.42145880  0.58601135     0.24260
C390        C  0.46657715  0.47497855  0.57845392    -0.23850
C391        C  0.41471383  0.49084837  0.58126308     0.19160
C392        C  0.37653569  0.45285661  0.57617416     0.24200
C393        C  0.39282016  0.40439592  0.55782690    -0.23790
C394        C  0.43781435  0.38539360  0.58066362     0.19100
F395        F  0.44873575  0.33387165  0.57815470    -0.13750
F396        F  0.52665503  0.40400813  0.59227772    -0.16120
F397        F  0.32740491  0.46806365  0.56843972    -0.16120
F398        F  0.40123958  0.54193915  0.58216443    -0.13750
C399        C  0.18965580  0.59420329  0.48779892     0.24260
C400        C  0.21795460  0.55247623  0.50791004    -0.23850
C401        C  0.20906683  0.53644671  0.55986634     0.19160
C402        C  0.17288851  0.56185149  0.59122703     0.24200
C403        C  0.13923357  0.59965122  0.56980125    -0.23790
C404        C  0.15074775  0.61733677  0.51766377     0.19100
F405        F  0.12631771  0.65830413  0.49496339    -0.13750
F406        F  0.19786440  0.61112509  0.43792718    -0.16120
F407        F  0.16860306  0.54673893  0.64208522    -0.16120
F408        F  0.23467057  0.49522804  0.58041997    -0.13750
C409        C  0.56076713  0.61693295  0.17425473     0.24260
C410        C  0.59474853  0.59081019  0.13940889    -0.23850
C411        C  0.59109774  0.53503099  0.13997427     0.19160
C412        C  0.56084269  0.50806707  0.17689898     0.24200
C413        C  0.52961280  0.53458067  0.21247884    -0.23790
C414        C  0.52907558  0.58937652  0.21003166     0.19100
F415        F  0.49883521  0.61664097  0.24337317    -0.13750
F416        F  0.55877657  0.66979068  0.17454712    -0.16120
F417        F  0.56010757  0.45510757  0.17578772    -0.16120
F418        F  0.61280022  0.50499860  0.10263501    -0.13750
C419        C  0.36986108  0.22306149  0.19453159     0.24260
C420        C  0.38290357  0.27618357  0.20254552    -0.23850
C421        C  0.39402581  0.30672560  0.15817846     0.19160
C422        C  0.41205698  0.28060230  0.11414849     0.24200
C423        C  0.42616187  0.22838900  0.12191991    -0.23790
C424        C  0.39089779  0.19869177  0.15090038     0.19100
F425        F  0.39248476  0.14582219  0.14935145    -0.13750
F426        F  0.34993887  0.19271098  0.23337466    -0.16120
F427        F  0.43240507  0.30828111  0.07414550    -0.16120
F428        F  0.39834540  0.35938009  0.16108588    -0.13750
C429        C  0.14720220  0.41671959  0.16225333     0.24260
C430        C  0.16570061  0.44739660  0.12095419    -0.23850
C431        C  0.21759672  0.44003989  0.10677574     0.19160
C432        C  0.25282984  0.43231081  0.14735005     0.24200
C433        C  0.23382311  0.42035907  0.19742142    -0.23790
C434        C  0.18127797  0.40552694  0.20270174     0.19100
F435        F  0.16140061  0.38747688  0.24867936    -0.13750
F436        F  0.09578858  0.41322941  0.17135066    -0.16120
F437        F  0.30387621  0.43978916  0.13874631    -0.16120
F438        F  0.23491099  0.45665343  0.05931252    -0.13750
C439        C  0.21486295  0.14306069  0.42256402     0.24260
C440        C  0.16676170  0.15705555  0.44275284    -0.23850
C441        C  0.15095921  0.20582680  0.42336761     0.19160
C442        C  0.18698796  0.24616684  0.43052792     0.24200
C443        C  0.23781141  0.23119319  0.44477202    -0.23790
C444        C  0.25384900  0.18035673  0.42999077     0.19100
F445        F  0.30390777  0.16547094  0.43044357    -0.13750
F446        F  0.22610628  0.09243563  0.41354163    -0.16120
F447        F  0.17071218  0.29634341  0.43242041    -0.16120
F448        F  0.10018261  0.21699899  0.41891833    -0.13750
C449        C  0.83342280  0.33317257  0.28567311     0.24260
C450        C  0.84125123  0.31876192  0.33915887    -0.23850
C451        C  0.80823221  0.27867487  0.35897330     0.19160
C452        C  0.77246279  0.25260923  0.32691880     0.24200
C453        C  0.76646017  0.26643828  0.27382022    -0.23790
C454        C  0.79783751  0.30690215  0.25392134     0.19100
F455        F  0.79301611  0.32299723  0.20341457    -0.13750
F456        F  0.85585988  0.37594266  0.26390539    -0.16120
F457        F  0.74267593  0.21456254  0.34869243    -0.16120
F458        F  0.81014704  0.26475981  0.41031348    -0.13750
C459        C  0.91450936  0.44608147  0.36375957     0.24260
C460        C  0.91227321  0.39226825  0.34928882    -0.23850
C461        C  0.94760875  0.37670606  0.30980101     0.19160
C462        C  0.97823919  0.41328580  0.28227216     0.24200
C463        C  0.97768389  0.46628654  0.29541129    -0.23790
C464        C  0.94639693  0.48195807  0.33702053     0.19100
F465        F  0.94623790  0.53272372  0.35174685    -0.13750
F466        F  0.88919614  0.46472085  0.40604759    -0.16120
F467        F  0.00882857  0.39671417  0.24267729    -0.16120
F468        F  0.95089328  0.32579025  0.29614957    -0.13750
C469        C  0.95155173  0.33702814  0.44436897     0.24260
C470        C  0.91792897  0.31388137  0.40733392    -0.23850
C471        C  0.92348003  0.25914467  0.40025154     0.19160
C472        C  0.95262845  0.22867408  0.43552851     0.24200
C473        C  0.98038646  0.25203004  0.47624013    -0.23790
C474        C  0.98165929  0.30678685  0.47813684     0.19100
F475        F  0.00973268  0.33172414  0.51504545    -0.13750
F476        F  0.95181147  0.38931839  0.45185804    -0.16120
F477        F  0.95450272  0.17623390  0.42906346    -0.16120
F478        F  0.90247457  0.23445838  0.35880667    -0.13750
C479        C  0.80102365  0.40971224  0.39917968     0.24260
C480        C  0.83936089  0.37503218  0.41800793    -0.23850
C481        C  0.83904809  0.36527958  0.47319226     0.19160
C482        C  0.81197160  0.39800991  0.50726179     0.24200
C483        C  0.77925386  0.43654023  0.48755261    -0.23790
C484        C  0.77063542  0.43860876  0.43359980     0.19100
F485        F  0.73328354  0.46929432  0.41377161    -0.13750
F486        F  0.79493031  0.41842312  0.34715514    -0.16120
F487        F  0.81741239  0.39168754  0.55975956    -0.16120
F488        F  0.86294124  0.32364900  0.49516659    -0.13750
C489        C  0.33059112  0.78755434  0.35351151     0.24260
C490        C  0.33221967  0.84255125  0.34461049    -0.23850
C491        C  0.29592945  0.86310653  0.30837776     0.19160
C492        C  0.26587203  0.83020230  0.27716677     0.24200
C493        C  0.26810570  0.77600871  0.28383658    -0.23790
C494        C  0.29930549  0.75520899  0.32322325     0.19100
F495        F  0.29977661  0.70292430  0.33227452    -0.13750
F496        F  0.35615470  0.76425172  0.39345264    -0.16120
F497        F  0.23439128  0.85139047  0.24048534    -0.16120
F498        F  0.29178699  0.91543006  0.30094358    -0.13750
C499        C  0.43400173  0.95589709  0.35474360     0.24260
C500        C  0.40158402  0.91577147  0.33536623    -0.23850
C501        C  0.40500715  0.90649959  0.28048631     0.19160
C502        C  0.43143692  0.94082234  0.24684764     0.24200
C503        C  0.45816770  0.98410257  0.26626690    -0.23790
C504        C  0.46037109  0.99029718  0.32086063     0.19100
F505        F  0.48908543  0.02904318  0.34196010    -0.13750
F506        F  0.43867893  0.96344466  0.40699209    -0.16120
F507        F  0.43151172  0.93069058  0.19478833    -0.16120
F508        F  0.38653252  0.86236584  0.25848656    -0.13750
C509        C  0.30053579  0.88543055  0.44785167     0.24260
C510        C  0.33079999  0.91286163  0.40996857    -0.23850
C511        C  0.32601764  0.96807423  0.40932108     0.19160
C512        C  0.30237745  0.99403178  0.45107718     0.24200
C513        C  0.27575958  0.96611072  0.49022506    -0.23790
C514        C  0.27316664  0.91165916  0.48665828     0.19100
F515        F  0.24708614  0.88309897  0.52315033    -0.13750
F516        F  0.30069716  0.83261041  0.45042387    -0.16120
F517        F  0.30544673  0.04676861  0.45289741    -0.16120
F518        F  0.34252534  0.99775742  0.36843438    -0.13750
C519        C  0.44468336  0.81722031  0.38541214     0.24260
C520        C  0.40986232  0.85257539  0.40903949    -0.23850
C521        C  0.41740149  0.86248228  0.46344168     0.19160
C522        C  0.45174987  0.83281009  0.49315014     0.24200
C523        C  0.48219129  0.79486789  0.46973080    -0.23790
C524        C  0.47972789  0.78845165  0.41547318     0.19100
F525        F  0.51114208  0.75420357  0.39127216    -0.13750
F526        F  0.44332187  0.80859826  0.33314867    -0.16120
F527        F  0.45653736  0.84246522  0.54508786    -0.16120
F528        F  0.39495678  0.90295877  0.48837315    -0.13750
C529        C  0.31252950  0.32262937  0.85047780     0.24260
C530        C  0.34416814  0.35999501  0.82356464    -0.23850
C531        C  0.34302227  0.35779492  0.76778831     0.19160
C532        C  0.30954833  0.32347522  0.74141369     0.24200
C533        C  0.27720057  0.28871183  0.76889208    -0.23790
C534        C  0.27972748  0.28814278  0.82366001     0.19100
F535        F  0.25055771  0.25364564  0.85151238    -0.13750
F536        F  0.31240039  0.32037267  0.90359869    -0.16120
F537        F  0.30978860  0.32331957  0.68828711    -0.16120
F538        F  0.37572389  0.38621216  0.73754532    -0.13750
C539        C  0.34265135  0.51420430  0.94834166     0.24260
C540        C  0.28859633  0.51246346  0.94967349    -0.23850
C541        C  0.26400674  0.47533815  0.91825050     0.19160
C542        C  0.29199322  0.44036854  0.88744539     0.24200
C543        C  0.34694927  0.43790578  0.88911370    -0.23790
C544        C  0.37111648  0.47877236  0.91779791     0.19100
F545        F  0.42315478  0.48379161  0.91770441    -0.13750
F546        F  0.36836906  0.55078652  0.97610231    -0.16120
F547        F  0.26346106  0.41218667  0.85364805    -0.16120
F548        F  0.21183078  0.47288680  0.91626782    -0.13750
C549        C  0.47264721  0.28354863  0.89672053     0.24260
C550        C  0.48938294  0.29787163  0.94672951    -0.23850
C551        C  0.46720414  0.34216913  0.96937120     0.19160
C552        C  0.42601917  0.36820994  0.94538085     0.24200
C553        C  0.41312911  0.35884367  0.89218519    -0.23790
C554        C  0.43725962  0.31448253  0.86907305     0.19100
F555        F  0.42963513  0.30260302  0.81806549    -0.13750
F556        F  0.49334676  0.24158530  0.87253351    -0.16120
F557        F  0.39937266  0.40135063  0.97594334    -0.16120
F558        F  0.48593634  0.36149917  0.01474093    -0.13750
C559        C  0.50578182  0.46262761  0.79634933     0.24260
C560        C  0.48591284  0.50220710  0.76441188    -0.23850
C561        C  0.43209379  0.50769095  0.76209018     0.19160
C562        C  0.39915696  0.47335563  0.79016111     0.24200
C563        C  0.41865048  0.43204940  0.82207024    -0.23790
C564        C  0.47368804  0.42933284  0.82539189     0.19100
F565        F  0.49889216  0.39692600  0.85846383    -0.13750
F566        F  0.55749136  0.45691828  0.80128501    -0.16120
F567        F  0.34760374  0.48054532  0.78589839    -0.16120
F568        F  0.41102311  0.54556097  0.73162759    -0.13750
C569        C  0.09246513  0.82892726  0.97651228     0.24260
C570        C  0.11499482  0.82722611  0.02708124    -0.23850
C571        C  0.14194004  0.87245549  0.04194009     0.19160
C572        C  0.15912928  0.90515750  0.00125639     0.24200
C573        C  0.16567854  0.87995128  0.95347868    -0.23790
C574        C  0.12297630  0.85119387  0.93710575     0.19100
F575        F  0.11922449  0.83392523  0.88721277    -0.13750
F576        F  0.05500276  0.79489745  0.96279102    -0.16120
F577        F  0.18731667  0.94815972  0.01105273    -0.16120
F578        F  0.16256573  0.87754127  0.09016902    -0.13750
C579        C  0.23326217  0.03852859  0.89211554     0.24260
C580        C  0.21258151  0.98744791  0.88460283    -0.23850
C581        C  0.16006602  0.98294364  0.87233098     0.19160
C582        C  0.13336887  0.02864427  0.85959546     0.24200
C583        C  0.16438222  0.07022706  0.84220377    -0.23790
C584        C  0.20569494  0.08154162  0.87424288     0.19100
F585        F  0.22928705  0.12875885  0.87063329    -0.13750
F586        F  0.28304147  0.04673936  0.90485733    -0.16120
F587        F  0.08477524  0.02481831  0.84138036    -0.16120
F588        F  0.13797514  0.93618861  0.86274687    -0.13750
C589        C  0.15796952  0.70447969  0.62297353     0.24260
C590        C  0.12942129  0.66108540  0.64332573    -0.23850
C591        C  0.13854501  0.64932826  0.69727307     0.19160
C592        C  0.16991673  0.68134347  0.72895593     0.24200
C593        C  0.19536567  0.72584548  0.70861114    -0.23790
C594        C  0.18894396  0.73645204  0.65485144     0.19100
F595        F  0.21372377  0.77754001  0.63212739    -0.14230
F596        F  0.15573213  0.71710986  0.57145804    -0.16120
F597        F  0.17643037  0.66739112  0.77985881    -0.16120
F598        F  0.12052182  0.60480037  0.71979801    -0.13750
C599        C  0.23673646  0.02288710  0.08059245     0.24260
C600        C  0.27845440  0.04622130  0.05416096    -0.23850
C601        C  0.27937218  0.10099230  0.05302431     0.19160
C602        C  0.24081743  0.13100653  0.07822494     0.24200
C603        C  0.19627295  0.10808701  0.10297286    -0.23790
C604        C  0.19427683  0.05233923  0.09801905     0.19100
F605        F  0.15060108  0.02465611  0.10754317    -0.13750
F606        F  0.23614355  0.97062138  0.08924659    -0.16120
F607        F  0.24613709  0.18290268  0.07269057    -0.16120
F608        F  0.31843583  0.12624499  0.02797336    -0.13750
C609        C  0.60529477  0.72721801  0.83324565     0.24260
C610        C  0.63133820  0.75548411  0.79426915    -0.23850
C611        C  0.61715389  0.80770790  0.78905366     0.19160
C612        C  0.56449223  0.81809686  0.79164571     0.24200
C613        C  0.53126882  0.77972499  0.81289582    -0.23790
C614        C  0.55292730  0.73702267  0.84002628     0.19100
F615        F  0.52366972  0.70303106  0.86837729    -0.13750
F616        F  0.62716396  0.68484615  0.85560277    -0.16120
F617        F  0.54617427  0.86276491  0.76980089    -0.16120
F618        F  0.64852448  0.84144073  0.76270023    -0.13750
C619        C  0.50708782  0.64410098  0.00634570     0.24260
C620        C  0.49839991  0.69810341  0.00840237    -0.23850
C621        C  0.53307991  0.72771640  0.03868203     0.19160
C622        C  0.57485351  0.70517800  0.06512442     0.24200
C623        C  0.58523636  0.65075013  0.06309946    -0.23790
C624        C  0.54836958  0.62075345  0.03438879     0.19100
F625        F  0.55144265  0.56795520  0.03417216    -0.13750
F626        F  0.47395120  0.61324011  0.97972376    -0.16120
F627        F  0.60114111  0.73759570  0.09699878    -0.16120
F628        F  0.52562259  0.77963821  0.04523758    -0.13750
C629        C  0.56541970  0.00545780  0.71080876     0.24260
C630        C  0.51277847  0.01015433  0.69959673    -0.23850
C631        C  0.49841778  0.04275487  0.65785497     0.19160
C632        C  0.53530577  0.07262814  0.63000268     0.24200
C633        C  0.58867234  0.07149913  0.64352998    -0.23790
C634        C  0.60272893  0.03367435  0.68192524     0.19100
F635        F  0.65301303  0.02610098  0.69388117    -0.13750
F636        F  0.58093089  0.97344757  0.75019050    -0.16120
F637        F  0.51786305  0.10037890  0.58835532    -0.16120
F638        F  0.44801587  0.04686662  0.64469560    -0.13750
C639        C  0.58696949  0.91518113  0.98743950     0.24260
C640        C  0.57761936  0.96054990  0.95622518    -0.23850
C641        C  0.59591515  0.96017388  0.90432301     0.19160
C642        C  0.60314777  0.91127296  0.88162432     0.24200
C643        C  0.58037840  0.86850811  0.90864042    -0.23790
C644        C  0.59570450  0.86816524  0.96106584     0.19100
F645        F  0.60021287  0.82263053  0.98791244    -0.13750
F646        F  0.58188837  0.91482234  0.04031659    -0.16120
F647        F  0.61588720  0.90910706  0.83054760    -0.16120
F648        F  0.59870769  0.00414803  0.87445713    -0.13750
C649        C  0.04736508  0.15170856  0.86560665     0.24260
C650        C  0.02119062  0.12992504  0.82310310    -0.23850
C651        C  0.96891300  0.11555243  0.83200794     0.19160
C652        C  0.94030180  0.14836011  0.86392216     0.24200
C653        C  0.96729344  0.18938631  0.88642197    -0.23790
C654        C  0.01694226  0.17678971  0.90285432     0.19100
F655        F  0.03894713  0.20538016  0.94034133    -0.13750
F656        F  0.09875284  0.16085732  0.86383657    -0.16120
F657        F  0.88850079  0.15117179  0.85778792    -0.16120
F658        F  0.94274893  0.08459078  0.79864283    -0.13750
C659        C  0.88034502  0.12239769  0.99478345     0.24260
C660        C  0.90553755  0.16769038  0.01088112    -0.23850
C661        C  0.90419473  0.17408237  0.06561233     0.19160
C662        C  0.85437843  0.17224881  0.08700601     0.24200
C663        C  0.81647902  0.14585980  0.05800544    -0.23790
C664        C  0.83366645  0.11099293  0.01935005     0.19100
F665        F  0.80230196  0.07401798  0.99955904    -0.13750
F666        F  0.89484352  0.09661586  0.95122661    -0.16120
F667        F  0.84194294  0.20356022  0.12759571    -0.16120
F668        F  0.94080710  0.20327244  0.08935083    -0.13750
C669        C  0.74574601  0.18845431  0.67527202     0.24260
C670        C  0.73544363  0.19015674  0.72957100    -0.23850
C671        C  0.68925940  0.16662236  0.74681569     0.19160
C672        C  0.65568085  0.14093729  0.71174154     0.24200
C673        C  0.66779602  0.13519398  0.65736529    -0.23790
C674        C  0.71239355  0.16290530  0.64018043     0.19100
F675        F  0.72494256  0.16453453  0.58865050    -0.13750
F676        F  0.78820623  0.21238846  0.65520412    -0.16120
F677        F  0.60963145  0.12546652  0.73162508    -0.16120
F678        F  0.67521923  0.16984378  0.79788891    -0.13750
C679        C  0.10800295  0.23225537  0.01677328     0.24260
C680        C  0.06942383  0.26345150  0.03962358    -0.23850
C681        C  0.05904934  0.25425646  0.09316238     0.19160
C682        C  0.08518779  0.21546633  0.12215671     0.24200
C683        C  0.12106523  0.18067172  0.09873853    -0.23790
C684        C  0.13016987  0.18942453  0.04419800     0.19100
F685        F  0.15973358  0.15662866  0.01589221    -0.13750
F686        F  0.12386006  0.24217466  0.96697986    -0.16120
F687        F  0.07426176  0.21166556  0.17398878    -0.16120
F688        F  0.02401711  0.28398921  0.11863165    -0.13750
C689        C  0.69462051  0.52228460  0.83640354     0.24260
C690        C  0.74528628  0.50792963  0.82332346    -0.23850
C691        C  0.78403396  0.54637515  0.82297852     0.19160
C692        C  0.76899276  0.59845176  0.82554604     0.24200
C693        C  0.71815704  0.60874883  0.81124218    -0.23790
C694        C  0.68202657  0.57539019  0.83585710     0.19100
F695        F  0.63145476  0.58819011  0.83670972    -0.13750
F696        F  0.65684160  0.48592946  0.84208504    -0.16120
F697        F  0.80469473  0.63672591  0.82660691    -0.16120
F698        F  0.83423761  0.53415860  0.81583395    -0.13750
C699        C  0.68547663  0.52797851  0.99235264     0.24260
C700        C  0.72002923  0.49783420  0.02196016    -0.23850
C701        C  0.72998960  0.51440346  0.07338297     0.19160
C702        C  0.70306193  0.55634149  0.09575282     0.24200
C703        C  0.66508118  0.58481699  0.06745556    -0.23790
C704        C  0.66105380  0.57254255  0.01335898     0.19100
F705        F  0.63487258  0.60363790  0.97966729    -0.13750
F706        F  0.67600365  0.51499827  0.94231105    -0.16120
F707        F  0.71157277  0.56626277  0.14703221    -0.16120
F708        F  0.76435313  0.48819335  0.10356670    -0.13750
C709        C  0.02663929  0.49512387  0.65368322     0.24260
C710        C  0.99501169  0.51363698  0.69394023    -0.23850
C711        C  0.99449217  0.56751940  0.70298944     0.19160
C712        C  0.02587156  0.60196871  0.67366543     0.24200
C713        C  0.06165729  0.58365716  0.63586664    -0.23790
C714        C  0.05881967  0.52917228  0.62461158     0.19100
F715        F  0.08505074  0.50792450  0.58420408    -0.13750
F716        F  0.02752656  0.44331315  0.64325475    -0.16120
F717        F  0.02272024  0.65368746  0.68399753    -0.16120
F718        F  0.96380759  0.58698979  0.74104072    -0.13750
C719        C  0.87074903  0.59410667  0.95670731     0.24260
C720        C  0.88618735  0.57805416  0.90659977    -0.23850
C721        C  0.93118289  0.60429368  0.89078474     0.19160
C722        C  0.97240681  0.59892452  0.92585637     0.24200
C723        C  0.96025749  0.58015484  0.97696707    -0.23790
C724        C  0.90916028  0.58882499  0.99515536     0.19100
F725        F  0.89549075  0.58184505  0.04605060    -0.13750
F726        F  0.82035686  0.59235063  0.97067786    -0.16120
F727        F  0.02152749  0.60238859  0.90791556    -0.16120
F728        F  0.94031452  0.61438750  0.83950029    -0.13750
C729        C  0.86488536  0.08681660  0.17817803     0.24260
C730        C  0.87824300  0.03413903  0.17213977    -0.23850
C731        C  0.85604107  0.01029591  0.12878019     0.19160
C732        C  0.80350642  0.01948184  0.12226485     0.24200
C733        C  0.78059545  0.05828192  0.15377525    -0.23790
C734        C  0.81236218  0.09710610  0.17509071     0.19100
F735        F  0.79270670  0.13956571  0.19928610    -0.13750
F736        F  0.89465674  0.11938043  0.20673192    -0.16120
F737        F  0.77510104  0.98511481  0.09448752    -0.16120
F738        F  0.87727174  0.96651691  0.10879745    -0.13750
C739        C  0.01747998  0.82175517  0.10863867     0.24260
C740        C  0.05831555  0.80534084  0.14102408    -0.23850
C741        C  0.08913186  0.84433069  0.16351539     0.19160
C742        C  0.06809705  0.89456643  0.16646922     0.24200
C743        C  0.01408745  0.89606825  0.16213490    -0.23790
C744        C  0.99547196  0.87030423  0.11824568     0.19100
F745        F  0.94844121  0.88183447  0.09855652    -0.13750
F746        F  0.99391608  0.78837906  0.07626118    -0.16120
F747        F  0.09320053  0.93169901  0.19395642    -0.16120
F748        F  0.13315126  0.83261710  0.18940034    -0.13750
C749        C  0.70824037  0.70707869  0.20137530     0.24260
C750        C  0.73588586  0.74259161  0.16965473    -0.23850
C751        C  0.73044383  0.73726215  0.11509105     0.19160
C752        C  0.69726072  0.69885272  0.09328856     0.24200
C753        C  0.66653331  0.66461530  0.12502016    -0.23790
C754        C  0.67524324  0.66862236  0.18008221     0.19100
F755        F  0.65512523  0.63344938  0.21440729    -0.13750
F756        F  0.71437245  0.70852382  0.25396864    -0.16120
F757        F  0.69395966  0.69618180  0.04039541    -0.16120
F758        F  0.75751498  0.76927374  0.08248526    -0.13750
C759        C  0.06207727  0.09800885  0.16283825     0.24260
C760        C  0.11671613  0.09980124  0.16542667    -0.23850
C761        C  0.13934233  0.06545360  0.20355009     0.19160
C762        C  0.10959289  0.03939130  0.24192650     0.24200
C763        C  0.05588380  0.04513904  0.24400916    -0.23790
C764        C  0.03262479  0.07252332  0.20235116     0.19100
F765        F  0.98087589  0.07329401  0.19883845    -0.13750
F766        F  0.03634136  0.12026412  0.12240575    -0.16120
F767        F  0.13414955  0.01089265  0.27920141    -0.16120
F768        F  0.19132689  0.06217662  0.20786197    -0.13750
C769        C  0.65326363  0.70639102  0.37554390     0.24260
C770        C  0.70643279  0.69708910  0.37056916    -0.23850
C771        C  0.72391270  0.64521399  0.37442950     0.19160
C772        C  0.69193873  0.60745236  0.39680527     0.24200
C773        C  0.64557499  0.62346280  0.41936063    -0.23790
C774        C  0.62163309  0.66674084  0.39597025     0.19100
F775        F  0.57207656  0.67746875  0.40823572    -0.13750
F776        F  0.63313185  0.75429662  0.36599348    -0.16120
F777        F  0.71292721  0.56157164  0.41123707    -0.16120
F778        F  0.77333917  0.63225572  0.36322431    -0.13750
C779        C  0.00100079  0.65237902  0.49056850     0.24260
C780        C  0.99777356  0.70678826  0.49082252    -0.23850
C781        C  0.01995509  0.73340042  0.53334186     0.19160
C782        C  0.04518770  0.70708647  0.57382904     0.24200
C783        C  0.05636257  0.65354047  0.56966689    -0.23790
C784        C  0.03019574  0.62606849  0.52899574     0.19100
F785        F  0.03656241  0.57403676  0.52326602    -0.13750
F786        F  0.98023151  0.62501015  0.45061126    -0.16120
F787        F  0.05899774  0.73514942  0.61623505    -0.16120
F788        F  0.01966100  0.78613836  0.53470134    -0.13750
C789        C  0.74031296  0.02288099  0.54842216     0.24260
C790        C  0.71528814  0.00279101  0.50386715    -0.23850
C791        C  0.66187977  0.00980409  0.50060292     0.19160
C792        C  0.63541813  0.04022257  0.53793595     0.24200
C793        C  0.66140381  0.06488913  0.58040384    -0.23790
C794        C  0.71360080  0.05058862  0.58718738     0.19100
F795        F  0.73970340  0.06229721  0.63137358    -0.13750
F796        F  0.79178719  0.01686655  0.55431942    -0.16120
F797        F  0.58463253  0.04873241  0.52985806    -0.16120
F798        F  0.63563773  0.99059398  0.45918573    -0.13750
C799        C  0.91299159  0.94592225  0.61011915     0.24260
C800        C  0.96382073  0.92694921  0.60382046    -0.23850
C801        C  0.97034901  0.87244677  0.60228202     0.19160
C802        C  0.92772589  0.84299635  0.58578332     0.24200
C803        C  0.88809799  0.87185980  0.56224400    -0.23790
C804        C  0.87282938  0.91327846  0.59391502     0.19100
F805        F  0.82349482  0.92994197  0.59385069    -0.13750
F806        F  0.90330025  0.99606050  0.62347270    -0.16120
F807        F  0.93017357  0.79060221  0.58025424    -0.16120
F808        F  0.01685702  0.85016570  0.61074226    -0.13750
C809        C  0.81616889  0.95078432  0.89613691     0.24260
C810        C  0.81938851  0.89563797  0.90351284    -0.23850
C811        C  0.77971185  0.87310564  0.93513502     0.19160
C812        C  0.74555022  0.90414846  0.96488861     0.24200
C813        C  0.74566610  0.95893528  0.95987980    -0.23790
C814        C  0.77989211  0.98104173  0.92293383     0.19100
F815        F  0.77767876  0.03264083  0.91082661    -0.13750
F816        F  0.84405328  0.97637251  0.85897968    -0.16120
F817        F  0.71139029  0.88020708  0.99747899    -0.16120
F818        F  0.77525033  0.82042790  0.93893880    -0.13750
C819        C  0.96804863  0.96173575  0.84400489     0.24260
C820        C  0.97710839  0.95498002  0.79023577    -0.23850
C821        C  0.95303553  0.91407090  0.76491976     0.19160
C822        C  0.91691686  0.88301213  0.79052495     0.24200
C823        C  0.90279847  0.89180163  0.84398842    -0.23790
C824        C  0.93332102  0.92873920  0.87112783     0.19100
F825        F  0.92676819  0.93550857  0.92334031    -0.13750
F826        F  0.99180273  0.00059287  0.87024536    -0.16120
F827        F  0.89960573  0.84206624  0.76245080    -0.16120
F828        F  0.96500608  0.90358730  0.71448352    -0.13750
C829        C  0.82765629  0.77619180  0.82294719     0.24260
C830        C  0.82621573  0.83085998  0.83110893    -0.23850
C831        C  0.80044450  0.86091872  0.79201879     0.19160
C832        C  0.78675925  0.83926335  0.74392269     0.24200
C833        C  0.79869211  0.78724008  0.73261316    -0.23790
C834        C  0.81836701  0.75579199  0.77301864     0.19100
F835        F  0.83000232  0.70534547  0.76370044    -0.13750
F836        F  0.83897504  0.74208773  0.86204382    -0.16120
F837        F  0.76548128  0.87073478  0.70690819    -0.16120
F838        F  0.79377941  0.91293367  0.79714607    -0.13750
C839        C  0.88543933  0.81823705  0.96632484     0.24260
C840        C  0.89020552  0.82082205  0.91064594    -0.23850
C841        C  0.92760018  0.78667855  0.88876359     0.19160
C842        C  0.95402781  0.74977948  0.91899312     0.24200
C843        C  0.94514676  0.74439610  0.97300960    -0.23790
C844        C  0.90959402  0.77857216  0.99606340     0.19100
F845        F  0.89966579  0.77551677  0.04816169    -0.13750
F846        F  0.86094182  0.85569856  0.99373512    -0.16120
F847        F  0.98849731  0.71865991  0.89440217    -0.16120
F848        F  0.93815230  0.78712518  0.83688543    -0.13750
loop_ 
_geom_bond_atom_site_label_1 
_geom_bond_atom_site_label_2 
_geom_bond_distance 
_geom_bond_site_symmetry_2 
_ccdc_geom_bond_type 
C1          C810   1.592       .  S
C1          C823   1.579       .  S
C1          C830   1.573       .  S
C1          C840   1.592       .  S
N2            N3   1.339       .  A
N2            N8   1.312       .  A
N2          Mn31   2.295       .  S
N3           C10   1.372       .  A
N4            N6   1.324       .  A
N4            N5   1.311   1_565  A
N4          Mn20   2.128       .  S
N5           C11   1.334       .  A
N6            N7   1.323       .  A
N6          Mn31   2.255       .  S
N7           C11   1.362   1_565  A
N8            N9   1.316       .  A
N8          Mn20   2.156       .  S
N9           C10   1.342       .  A
C10         C790   1.512   1_565  S
C11         C730   1.478       .  S
N12          N18   1.303       .  A
N12          N13   1.325   1_655  A
N12         Mn42   2.187       .  S
N13          C21   1.350   1_565  A
N14          N15   1.324       .  A
N14          N16   1.320       .  A
N14         Mn20   2.193       .  S
N15          C22   1.350       .  A
N16          N17   1.321       .  A
N16         Mn42   2.181       .  S
N17          C22   1.348       .  A
N18          N19   1.334   1_565  A
N18         Mn20   2.244       .  S
N19          C21   1.362   1_655  A
Mn20        Cl44   2.542       .  S
C21         C763   1.515       .  S
C22         C803   1.499       .  S
N23          N24   1.335       .  A
N23          N29   1.319       .  A
N23         Mn31   2.260       .  S
N24          C32   1.362       .  A
N25          N27   1.329       .  A
N25          N26   1.313       .  A
N25         Mn43   2.202       .  S
N26          C33   1.346       .  A
N27          N28   1.322       .  A
N27         Mn31   2.225       .  S
N28          C33   1.354       .  A
N29          N30   1.331       .  A
N29         Mn43   2.230       .  S
N30          C32   1.355       .  A
Mn31        Cl44   2.542       .  S
C32         C750   1.527       .  S
C33         C770   1.472       .  S
N34          N35   1.308       .  A
N34          N40   1.307       .  A
N34         Mn42   2.113       .  S
N35          C45   1.336       .  A
N36          N37   1.328       .  A
N36          N38   1.323       .  A
N36         Mn43   2.245       .  S
N37          C46   1.361       .  A
N38          N39   1.309   1_655  A
N38         Mn42   2.141       .  S
N39          C46   1.335   1_455  A
N40          N41   1.338       .  A
N40         Mn43   2.272       .  S
N41          C45   1.371       .  A
Mn42        Cl44   2.554       .  S
Mn43        Cl44   2.521       .  S
C45         C780   1.497       .  S
C46         C743   1.486   1_655  S
N47          N48   1.322       .  A
N47          N53   1.320       .  A
N47         Mn76   2.184       .  S
N48          C55   1.354       .  A
N49          N51   1.303   1_655  A
N49          N50   1.325   1_556  A
N49         Mn65   2.197       .  S
N50          C56   1.353   1_655  A
N51          N52   1.338       .  A
N51         Mn76   2.258   1_455  S
N52          C56   1.368   1_556  A
N53          N54   1.318       .  A
N53         Mn65   2.164       .  S
N54          C55   1.351       .  A
C55         C720   1.505       .  S
C56         C680   1.531       .  S
N57          N63   1.324       .  A
N57          N58   1.333       .  A
N57         Mn87   2.271       .  S
N58          C66   1.368       .  A
N59          N60   1.320   1_556  A
N59          N61   1.307       .  A
N59         Mn65   2.152       .  S
N60          C67   1.345   1_554  A
N61          N62   1.339       .  A
N61         Mn87   2.291       .  S
N62          C67   1.371       .  A
N63          N64   1.308   1_556  A
N63         Mn65   2.144       .  S
N64          C66   1.336   1_554  A
Mn65        Cl89   2.542       .  S
C66         C660   1.492   1_556  S
C67         C700   1.517   1_556  S
N68          N69   1.314   1_655  A
N68          N74   1.334       .  A
N68         Mn76   2.165       .  S
N69          C77   1.336   1_455  A
N70          N72   1.308       .  A
N70          N71   1.334       .  A
N70         Mn88   2.248       .  S
N71          C78   1.364       .  A
N72          N73   1.321       .  A
N72         Mn76   2.168       .  S
N73          C78   1.346       .  A
N74          N75   1.322       .  A
N74         Mn88   2.215       .  S
N75          C77   1.344       .  A
Mn76        Cl89   2.560       .  S
C77         C653   1.475       .  S
C78         C710   1.497       .  S
N79          N80   1.309       .  A
N79          N85   1.329       .  A
N79         Mn87   2.177       .  S
N80          C90   1.336       .  A
N81          N82   1.325       .  A
N81          N83   1.315       .  A
N81         Mn88   2.219       .  S
N82          C91   1.352       .  A
N83          N84   1.334       .  A
N83         Mn87   2.236       .  S
N84          C91   1.364       .  A
N85          N86   1.318       .  A
N85         Mn88   2.222       .  S
N86          C90   1.353       .  A
Mn87        Cl89   2.550       .  S
Mn88        Cl89   2.517       .  S
C90         C690   1.445       .  S
C91         C670   1.525       .  S
N92          N93   1.343       .  A
N92          N98   1.296       .  A
N92        Mn121   2.267       .  S
N93         C100   1.374       .  A
N94          N96   1.331       .  A
N94          N95   1.311       .  A
N94        Mn110   2.195       .  S
N95         C101   1.346       .  A
N96          N97   1.325       .  A
N96        Mn121   2.225       .  S
N97         C101   1.352       .  A
N98          N99   1.314   1_556  A
N98        Mn110   2.111       .  S
N99         C100   1.340   1_554  A
C100        C620   1.521   1_556  S
C101        C573   1.478       .  S
N102        N108   1.311       .  A
N102        N103   1.333   1_565  A
N102       Mn132   2.256       .  S
N103        C111   1.363   1_556  A
N104        N105   1.326       .  A
N104        N106   1.310       .  A
N104       Mn110   2.180       .  S
N105        C112   1.362       .  A
N106        N107   1.315       .  A
N106       Mn132   2.167       .  S
N107        C112   1.350       .  A
N108        N109   1.327   1_556  A
N108       Mn110   2.219       .  S
N109        C111   1.356   1_565  A
Mn110      Cl134   2.636       .  S
C111        C600   1.525       .  S
C112        C643   1.506       .  S
N113        N114   1.329       .  A
N113        N119   1.316       .  A
N113       Mn121   2.241       .  S
N114        C122   1.358       .  A
N115        N117   1.322       .  A
N115        N116   1.315       .  A
N115       Mn133   2.220       .  S
N116        C123   1.345       .  A
N117        N118   1.316       .  A
N117       Mn121   2.135       .  S
N118        C123   1.342       .  A
N119        N120   1.329       .  A
N119       Mn133   2.230       .  S
N120        C122   1.359       .  A
Mn121      Cl134   2.629       .  S
C122        C593   1.523       .  S
C123        C613   1.457       .  S
N124        N125   1.325       .  A
N124        N130   1.324       .  A
N124       Mn132   2.217       .  S
N125        C135   1.346       .  A
N126        N127   1.336       .  A
N126        N128   1.313       .  A
N126       Mn133   2.214       .  S
N127        C136   1.355       .  A
N128        N129   1.323       .  A
N128       Mn132   2.178       .  S
N129        C136   1.321       .  A
N130        N131   1.332       .  A
N130       Mn133   2.255       .  S
N131        C135   1.356       .  A
Mn132      Cl134   2.704       .  S
Mn133      Cl134   2.670       .  S
C135        C630   1.499   1_565  S
C136        C580   1.466       .  S
C137        C530   1.592       .  S
C137        C543   1.596       .  S
C137        C553   1.586       .  S
C137        C563   1.591       .  S
C138        C490   1.572       .  S
C138        C500   1.578       .  S
C138        C510   1.570       .  S
C138        C520   1.570       .  S
C139        C450   1.589       .  S
C139        C460   1.586       .  S
C139        C470   1.577       .  S
C139        C480   1.575       .  S
N140        N141   1.326       .  A
N140        N146   1.323       .  A
N140       Mn169   2.168       .  S
N141        C148   1.348       .  A
N142        N144   1.308       .  A
N142        N143   1.320   1_545  A
N142       Mn158   2.167       .  S
N143        C149   1.352       .  A
N144        N145   1.325       .  A
N144       Mn169   2.216       .  S
N145        C149   1.356   1_545  A
N146        N147   1.308       .  A
N146       Mn158   2.170       .  S
N147        C148   1.338       .  A
C148        C583   1.477       .  S
C149        C513   1.485       .  S
N150        N156   1.331   1_545  A
N150        N151   1.313   1_455  A
N150       Mn180   2.177       .  S
N151        C159   1.338   1_645  A
N152        N153   1.323   1_545  A
N152        N154   1.310       .  A
N152       Mn158   2.186       .  S
N153        C160   1.353       .  A
N154        N155   1.321   1_455  A
N154       Mn180   2.222       .  S
N155        C160   1.352   1_645  A
N156        N157   1.318       .  A
N156       Mn158   2.174   1_565  S
N157        C159   1.337       .  A
Mn158      Cl182   2.513       .  S
C159        C800   1.459   1_455  S
C160        C820   1.475   1_455  S
N161        N162   1.321       .  A
N161        N167   1.325       .  A
N161       Mn169   2.162       .  S
N162        C170   1.348       .  A
N163        N165   1.309       .  A
N163        N164   1.330       .  A
N163       Mn181   2.222       .  S
N164        C171   1.360       .  A
N165        N166   1.326       .  A
N165       Mn169   2.204       .  S
N166        C171   1.353       .  A
N167        N168   1.316       .  A
N167       Mn181   2.178       .  S
N168        C170   1.344       .  A
Mn169      Cl182   2.534       .  S
C170        C440   1.494       .  S
C171        C533   1.500       .  S
N172        N173   1.302   1_455  A
N172        N178   1.321       .  A
N172       Mn180   2.156       .  S
N173        C183   1.329   1_655  A
N174        N175   1.320       .  A
N174        N176   1.310       .  A
N174       Mn181   2.220       .  S
N175        C184   1.351       .  A
N176        N177   1.329   1_455  A
N176       Mn180   2.191       .  S
N177        C184   1.361   1_655  A
N178        N179   1.331       .  A
N178       Mn181   2.217       .  S
N179        C183   1.361       .  A
Mn180      Cl182   2.528       .  S
Mn181      Cl182   2.504       .  S
C183        C650   1.470       .  S
C184        C473   1.497   1_455  S
N185        N186   1.322       .  A
N185        N191   1.319       .  A
N185       Mn214   2.198       .  S
N186        C193   1.343       .  A
N187        N189   1.313       .  A
N187        N188   1.323   1_455  A
N187       Mn203   2.206       .  S
N188        C194   1.351   1_655  A
N189        N190   1.328       .  A
N189       Mn214   2.224       .  S
N190        C194   1.359       .  A
N191        N192   1.314       .  A
N191       Mn203   2.137       .  S
N192        C193   1.340       .  A
C193        C740   1.463       .  S
C194        C463   1.492   1_455  S
N195        N201   1.341       .  A
N195        N196   1.313   1_554  A
N195       Mn225   2.201       .  S
N196        C204   1.338   1_456  A
N197        N198   1.333   1_455  A
N197        N199   1.300       .  A
N197       Mn203   2.213       .  S
N198        C205   1.362       .  A
N199        N200   1.319   1_554  A
N199       Mn225   2.175       .  S
N200        C205   1.349   1_456  A
N201        N202   1.312   1_455  A
N201       Mn203   2.193       .  S
N202        C204   1.334       .  A
Mn203      Cl227   2.574       .  S
C204        C723   1.473   1_554  S
C205        C843   1.505   1_554  S
N206        N207   1.338       .  A
N206        N212   1.310       .  A
N206       Mn214   2.201       .  S
N207        C215   1.350       .  A
N208        N210   1.321       .  A
N208        N209   1.325       .  A
N208       Mn226   2.205       .  S
N209        C216   1.348       .  A
N210        N211   1.324       .  A
N210       Mn214   2.210       .  S
N211        C216   1.347       .  A
N212        N213   1.330       .  A
N212       Mn226   2.202       .  S
N213        C215   1.333       .  A
Mn214      Cl227   2.696       .  S
C215        C430   1.473       .  S
C216        C493   1.477       .  S
N217        N218   1.301       .  A
N217        N223   1.311       .  A
N217       Mn225   2.098       .  S
N218        C228   1.333       .  A
N219        N220   1.329       .  A
N219        N221   1.317       .  A
N219       Mn226   2.250       .  S
N220        C229   1.361   1_554  A
N221        N222   1.320   1_554  A
N221       Mn225   2.208       .  S
N222        C229   1.354       .  A
N223        N224   1.334       .  A
N223       Mn226   2.244       .  S
N224        C228   1.365       .  A
Mn225      Cl227   2.571       .  S
Mn226      Cl227   2.692       .  S
C228        C570   1.479       .  S
C229        C540   1.505       .  S
N230        N231   1.321   1_554  A
N230        N236   1.310       .  A
N230       Mn259   2.189       .  S
N231        C238   1.352   1_545  A
N232        N234   1.331       .  A
N232        N233   1.309       .  A
N232       Mn248   2.176       .  S
N233        C239   1.334   1_554  A
N234        N235   1.315   1_554  A
N234       Mn259   2.186       .  S
N235        C239   1.339       .  A
N236        N237   1.333   1_545  A
N236       Mn248   2.260       .  S
N237        C238   1.365   1_554  A
C238        C813   1.514       .  S
C239        C640   1.463   1_545  S
N240        N246   1.311       .  A
N240        N241   1.324       .  A
N240       Mn270   2.199       .  S
N241        C249   1.353       .  A
N242        N243   1.310       .  A
N242        N244   1.328       .  A
N242       Mn248   2.158       .  S
N243        C250   1.331       .  A
N244        N245   1.317       .  A
N244       Mn270   2.193       .  S
N245        C250   1.345       .  A
N246        N247   1.322       .  A
N246       Mn248   2.187       .  S
N247        C249   1.353       .  A
Mn248      Cl272   2.520       .  S
C249        C503   1.494   1_545  S
C250        C733   1.451       .  S
N251        N252   1.324       .  A
N251        N257   1.309   1_556  A
N251       Mn259   2.186   1_556  S
N252        C260   1.356       .  A
N253        N255   1.322       .  A
N253        N254   1.325       .  A
N253       Mn271   2.180       .  S
N254        C261   1.349       .  A
N255        N256   1.309       .  A
N255       Mn259   2.175       .  S
N256        C261   1.337       .  A
N257        N258   1.324       .  A
N257       Mn271   2.219       .  S
N258        C260   1.355   1_554  A
Mn259      Cl272   2.523       .  S
C260        C550   1.498       .  S
C261        C663   1.463       .  S
N262        N263   1.329       .  A
N262        N268   1.307       .  A
N262       Mn270   2.226       .  S
N263        C273   1.360       .  A
N264        N265   1.316       .  A
N264        N266   1.327       .  A
N264       Mn271   2.173       .  S
N265        C274   1.338       .  A
N266        N267   1.323       .  A
N266       Mn270   2.217       .  S
N267        C274   1.353       .  A
N268        N269   1.324       .  A
N268       Mn271   2.195       .  S
N269        C273   1.356       .  A
Mn270      Cl272   2.520       .  S
Mn271      Cl272   2.545       .  S
C273        C453   1.511       .  S
C274        C423   1.480       .  S
C275        C410   1.588       .  S
C275        C623   1.599       .  S
C275        C703   1.590       .  S
C275        C753   1.610       .  S
C276        C403   1.570       .  S
C276        C590   1.602       .  S
C276        C713   1.585       .  S
C276        C783   1.573       .  S
N277        N278   1.311       .  A
N277        N283   1.334       .  A
N277       Mn306   2.182       .  S
N278        C285   1.336       .  A
N279        N281   1.299       .  A
N279        N280   1.319       .  A
N279       Mn295   2.143       .  S
N280        C286   1.342       .  A
N281        N282   1.325       .  A
N281       Mn306   2.190       .  S
N282        C286   1.351       .  A
N283        N284   1.311       .  A
N283       Mn295   2.180       .  S
N284        C285   1.335       .  A
C285        C443   1.471       .  S
C286        C373   1.467       .  S
N287        N293   1.307       .  A
N287        N288   1.332       .  A
N287       Mn317   2.250       .  S
N288        C296   1.368       .  A
N289        N290   1.317       .  A
N289        N291   1.315       .  A
N289       Mn295   2.174       .  S
N290        C297   1.346       .  A
N291        N292   1.328       .  A
N291       Mn317   2.250       .  S
N292        C297   1.362       .  A
N293        N294   1.302       .  A
N293       Mn295   2.084       .  S
N294        C296   1.328       .  A
Mn295      Cl319   2.581       .  S
C296        C433   1.467       .  S
C297        C400   1.481       .  S
N298        N299   1.306       .  A
N298        N304   1.313       .  A
N298       Mn306   2.108       .  S
N299        C307   1.332       .  A
N300        N302   1.314       .  A
N300        N301   1.330       .  A
N300       Mn318   2.264       .  S
N301        C308   1.364       .  A
N302        N303   1.320       .  A
N302       Mn306   2.180       .  S
N303        C308   1.349       .  A
N304        N305   1.326       .  A
N304       Mn318   2.225       .  S
N305        C307   1.357       .  A
Mn306      Cl319   2.635       .  S
C307        C420   1.463       .  S
C308        C383   1.492       .  S
N309        N310   1.335       .  A
N309        N315   1.315       .  A
N309       Mn317   2.229       .  S
N310        C320   1.339       .  A
N311        N312   1.325       .  A
N311        N313   1.328       .  A
N311       Mn318   2.241       .  S
N312        C321   1.350       .  A
N313        N314   1.328       .  A
N313       Mn317   2.236       .  S
N314        C321   1.351       .  A
N315        N316   1.338       .  A
N315       Mn318   2.218       .  S
N316        C320   1.342       .  A
Mn317      Cl319   2.677       .  S
Mn318      Cl319   2.633       .  S
C320        C393   1.476       .  S
C321        C413   1.497       .  S
N322        N323   1.322       .  A
N322        N328   1.314       .  A
N322       Mn351   2.170       .  S
N323        C330   1.358       .  A
N324        N326   1.315       .  A
N324        N325   1.320       .  A
N324       Mn340   2.176       .  S
N325        C331   1.349       .  A
N326        N327   1.324       .  A
N326       Mn351   2.231       .  S
N327        C331   1.354       .  A
N328        N329   1.315       .  A
N328       Mn340   2.173       .  S
N329        C330   1.341       .  A
C330        C610   1.468       .  S
C331        C523   1.472       .  S
N332        N338   1.306       .  A
N332        N333   1.335       .  A
N332       Mn362   2.200       .  S
N333        C341   1.347       .  A
N334        N335   1.321       .  A
N334        N336   1.315       .  A
N334       Mn340   2.176       .  S
N335        C342   1.343       .  A
N336        N337   1.325       .  A
N336       Mn362   2.199       .  S
N337        C342   1.351       .  A
N338        N339   1.331       .  A
N338       Mn340   2.175       .  S
N339        C341   1.339       .  A
Mn340      Cl364   2.701       .  S
C341        C773   1.478       .  S
C342        C833   1.489       .  S
N343        N344   1.316       .  A
N343        N349   1.337       .  A
N343       Mn351   2.214       .  S
N344        C352   1.344       .  A
N345        N347   1.302       .  A
N345        N346   1.321       .  A
N345       Mn363   2.182       .  S
N346        C353   1.352       .  A
N347        N348   1.329       .  A
N347       Mn351   2.181       .  S
N348        C353   1.356       .  A
N349        N350   1.313       .  A
N349       Mn363   2.194       .  S
N350        C352   1.340       .  A
Mn351      Cl364   2.582       .  S
C352        C390   1.460       .  S
C353        C560   1.499       .  S
N354        N355   1.326       .  A
N354        N360   1.312       .  A
N354       Mn362   2.199       .  S
N355        C365   1.352       .  A
N356        N357   1.326       .  A
N356        N358   1.316       .  A
N356       Mn363   2.225       .  S
N357        C366   1.353       .  A
N358        N359   1.322       .  A
N358       Mn362   2.205       .  S
N359        C366   1.353       .  A
N360        N361   1.309       .  A
N360       Mn363   2.121       .  S
N361        C365   1.346       .  A
Mn362      Cl364   2.693       .  S
Mn363      Cl364   2.559       .  S
C365        C693   1.483       .  S
C366        C483   1.482       .  S
C367        C380   1.581       .  S
C367        C633   1.587       .  S
C367        C673   1.603       .  S
C367        C793   1.588       .  S
C368        C370   1.595       .  S
C368        C603   1.630       .  S
C368        C683   1.599       .  S
C368        C760   1.601       .  S
C369        C370   1.424       .  A
C369        C374   1.408       .  A
C369        F376   1.355       .  S
C370        C371   1.433       .  A
C371        C372   1.385       .  A
C371        F378   1.357       .  S
C372        C373   1.384       .  A
C372        F377   1.350       .  S
C373        C374   1.402       .  A
C374        F375   1.357       .  S
C379        C380   1.432       .  A
C379        C384   1.408       .  A
C379        F386   1.356       .  S
C380        C381   1.420       .  A
C381        C382   1.406       .  A
C381        F388   1.357       .  S
C382        C383   1.405       .  A
C382        F387   1.355       .  S
C383        C384   1.399       .  A
C384        F385   1.358       .  S
C389        C390   1.415       .  A
C389        C394   1.396       .  A
C389        F396   1.357       .  S
C390        C391   1.411       .  A
C391        C392   1.395       .  A
C391        F398   1.358       .  S
C392        C393   1.399       .  A
C392        F397   1.351       .  S
C393        C394   1.396       .  A
C394        F395   1.354       .  S
C399        C400   1.396       .  A
C399        C404   1.401       .  A
C399        F406   1.358       .  S
C400        C401   1.404       .  A
C401        C402   1.400       .  A
C401        F408   1.354       .  S
C402        C403   1.415       .  A
C402        F407   1.357       .  S
C403        C404   1.434       .  A
C404        F405   1.356       .  S
C409        C410   1.425       .  A
C409        C414   1.411       .  A
C409        F416   1.357       .  S
C410        C411   1.433       .  A
C411        C412   1.402       .  A
C411        F418   1.354       .  S
C412        C413   1.399       .  A
C412        F417   1.359       .  S
C413        C414   1.406       .  A
C414        F415   1.357       .  S
C419        C420   1.419       .  A
C419        C424   1.394       .  A
C419        F426   1.356       .  S
C420        C421   1.401       .  A
C421        C422   1.395       .  A
C421        F428   1.357       .  S
C422        C423   1.402       .  A
C422        F427   1.345       .  S
C423        C424   1.396       .  A
C424        F425   1.357       .  S
C429        C430   1.393       .  A
C429        C434   1.392       .  A
C429        F436   1.358       .  S
C430        C431   1.409       .  A
C431        C432   1.399       .  A
C431        F438   1.357       .  S
C432        C433   1.401       .  A
C432        F437   1.357       .  S
C433        C434   1.422       .  A
C434        F435   1.358       .  S
C439        C440   1.400       .  A
C439        C444   1.405       .  A
C439        F446   1.353       .  S
C440        C441   1.404       .  A
C441        C442   1.407       .  A
C441        F448   1.356       .  S
C442        C443   1.424       .  A
C442        F447   1.357       .  S
C443        C444   1.424       .  A
C444        F445   1.357       .  S
C449        C450   1.428       .  A
C449        C454   1.407       .  A
C449        F456   1.354       .  S
C450        C451   1.425       .  A
C451        C452   1.412       .  A
C451        F458   1.358       .  S
C452        C453   1.409       .  A
C452        F457   1.357       .  S
C453        C454   1.408       .  A
C454        F455   1.358       .  S
C459        C460   1.433       .  A
C459        C464   1.407       .  A
C459        F466   1.355       .  S
C460        C461   1.423       .  A
C461        C462   1.409       .  A
C461        F468   1.357       .  S
C462        C463   1.403       .  A
C462        F467   1.357   1_655  S
C463        C464   1.399       .  A
C464        F465   1.358       .  S
C469        C470   1.423       .  A
C469        C474   1.398       .  A
C469        F476   1.356       .  S
C470        C471   1.425       .  A
C471        C472   1.412       .  A
C471        F478   1.355       .  S
C472        C473   1.406       .  A
C472        F477   1.357       .  S
C473        C474   1.406       .  A
C474        F475   1.358   1_655  S
C479        C480   1.420       .  A
C479        C484   1.399       .  A
C479        F486   1.356       .  S
C480        C481   1.430       .  A
C481        C482   1.404       .  A
C481        F488   1.355       .  S
C482        C483   1.397       .  A
C482        F487   1.358       .  S
C483        C484   1.398       .  A
C484        F485   1.349       .  S
C489        C490   1.427       .  A
C489        C494   1.400       .  A
C489        F496   1.355       .  S
C490        C491   1.423       .  A
C491        C492   1.404       .  A
C491        F498   1.358       .  S
C492        C493   1.400       .  A
C492        F497   1.357       .  S
C493        C494   1.398       .  A
C494        F495   1.358       .  S
C499        C500   1.421       .  A
C499        C504   1.405       .  A
C499        F506   1.357       .  S
C500        C501   1.427       .  A
C501        C502   1.401       .  A
C501        F508   1.356       .  S
C502        C503   1.403       .  A
C502        F507   1.358       .  S
C503        C504   1.407       .  A
C504        F505   1.358   1_565  S
C509        C510   1.424       .  A
C509        C514   1.397       .  A
C509        F516   1.355       .  S
C510        C511   1.422       .  A
C511        C512   1.404       .  A
C511        F518   1.354       .  S
C512        C513   1.404       .  A
C512        F517   1.356   1_565  S
C513        C514   1.401       .  A
C514        F515   1.358       .  S
C519        C520   1.420       .  A
C519        C524   1.401       .  A
C519        F526   1.357       .  S
C520        C521   1.430       .  A
C521        C522   1.397       .  A
C521        F528   1.355       .  S
C522        C523   1.394       .  A
C522        F527   1.359       .  S
C523        C524   1.400       .  A
C524        F525   1.353       .  S
C529        C530   1.430       .  A
C529        C534   1.410       .  A
C529        F536   1.358       .  S
C530        C531   1.428       .  A
C531        C532   1.413       .  A
C531        F538   1.353       .  S
C532        C533   1.405       .  A
C532        F537   1.358       .  S
C533        C534   1.402       .  A
C534        F535   1.358       .  S
C539        C540   1.406       .  A
C539        C544   1.413       .  A
C539        F546   1.357       .  S
C540        C541   1.405       .  A
C541        C542   1.402       .  A
C541        F548   1.358       .  S
C542        C543   1.431       .  A
C542        F547   1.353       .  S
C543        C544   1.430       .  A
C544        F545   1.358       .  S
C549        C550   1.403       .  A
C549        C554   1.405       .  A
C549        F556   1.358       .  S
C550        C551   1.404       .  A
C551        C552   1.403       .  A
C551        F558   1.357   1_556  S
C552        C553   1.424       .  A
C552        F557   1.351       .  S
C553        C554   1.432       .  A
C554        F555   1.357       .  S
C559        C560   1.398       .  A
C559        C564   1.398       .  A
C559        F566   1.358       .  S
C560        C561   1.408       .  A
C561        C562   1.414       .  A
C561        F568   1.357       .  S
C562        C563   1.426       .  A
C562        F567   1.358       .  S
C563        C564   1.435       .  A
C564        F565   1.352       .  S
C569        C570   1.421   1_556  A
C569        C574   1.396       .  A
C569        F576   1.355       .  S
C570        C571   1.409       .  A
C571        C572   1.400       .  A
C571        F578   1.353       .  S
C572        C573   1.397   1_554  A
C572        F577   1.348       .  S
C573        C574   1.398       .  A
C574        F575   1.358       .  S
C579        C580   1.429   1_545  A
C579        C584   1.392       .  A
C579        F586   1.351       .  S
C580        C581   1.406       .  A
C581        C582   1.400   1_565  A
C581        F588   1.352       .  S
C582        C583   1.402       .  A
C582        F587   1.351       .  S
C583        C584   1.384       .  A
C584        F585   1.357       .  S
C589        C590   1.428       .  A
C589        C594   1.413       .  A
C589        F596   1.354       .  S
C590        C591   1.429       .  A
C591        C592   1.417       .  A
C591        F598   1.355       .  S
C592        C593   1.411       .  A
C592        F597   1.357       .  S
C593        C594   1.409       .  A
C594        F595   1.358       .  S
C599        C600   1.404       .  A
C599        C604   1.412       .  A
C599        F606   1.356   1_545  S
C600        C601   1.405       .  A
C601        C602   1.422       .  A
C601        F608   1.357       .  S
C602        C603   1.438       .  A
C602        F607   1.343       .  S
C603        C604   1.437       .  A
C604        F605   1.357       .  S
C609        C610   1.398       .  A
C609        C614   1.395       .  A
C609        F616   1.351       .  S
C610        C611   1.395       .  A
C611        C612   1.397       .  A
C611        F618   1.359       .  S
C612        C613   1.410       .  A
C612        F617   1.358       .  S
C613        C614   1.410       .  A
C614        F615   1.357       .  S
C619        C620   1.405       .  A
C619        C624   1.423       .  A
C619        F626   1.357   1_554  S
C620        C621   1.414       .  A
C621        C622   1.404       .  A
C621        F628   1.358       .  S
C622        C623   1.424       .  A
C622        F627   1.354       .  S
C623        C624   1.435       .  A
C624        F625   1.356       .  S
C629        C630   1.404       .  A
C629        C634   1.410       .  A
C629        F636   1.356   1_545  S
C630        C631   1.402       .  A
C631        C632   1.411       .  A
C631        F638   1.358       .  S
C632        C633   1.431       .  A
C632        F637   1.355       .  S
C633        C634   1.423       .  A
C634        F635   1.357       .  S
C639        C640   1.426       .  A
C639        C644   1.405       .  A
C639        F646   1.357   1_556  S
C640        C641   1.408       .  A
C641        C642   1.400       .  A
C641        F648   1.357   1_565  S
C642        C643   1.417       .  A
C642        F647   1.347       .  S
C643        C644   1.399       .  A
C644        F645   1.354       .  S
C649        C650   1.403       .  A
C649        C654   1.398       .  A
C649        F656   1.356       .  S
C650        C651   1.423   1_455  A
C651        C652   1.392       .  A
C651        F658   1.354       .  S
C652        C653   1.392       .  A
C652        F657   1.358       .  S
C653        C654   1.396   1_655  A
C654        F655   1.341       .  S
C659        C660   1.397   1_556  A
C659        C664   1.393   1_556  A
C659        F666   1.353       .  S
C660        C661   1.410       .  A
C661        C662   1.404       .  A
C661        F668   1.357       .  S
C662        C663   1.410       .  A
C662        F667   1.357       .  S
C663        C664   1.411       .  A
C664        F665   1.351   1_554  S
C669        C670   1.414       .  A
C669        C674   1.414       .  A
C669        F676   1.357       .  S
C670        C671   1.409       .  A
C671        C672   1.418       .  A
C671        F678   1.357       .  S
C672        C673   1.433       .  A
C672        F677   1.355       .  S
C673        C674   1.423       .  A
C674        F675   1.356       .  S
C679        C680   1.413       .  A
C679        C684   1.422       .  A
C679        F686   1.358   1_554  S
C680        C681   1.411       .  A
C681        C682   1.412       .  A
C681        F688   1.358       .  S
C682        C683   1.427       .  A
C682        F687   1.356       .  S
C683        C684   1.429       .  A
C684        F685   1.354       .  S
C689        C690   1.408       .  A
C689        C694   1.401       .  A
C689        F696   1.358       .  S
C690        C691   1.407       .  A
C691        C692   1.395       .  A
C691        F698   1.355       .  S
C692        C693   1.397       .  A
C692        F697   1.349       .  S
C693        C694   1.410       .  A
C694        F695   1.356       .  S
C699        C700   1.405   1_556  A
C699        C704   1.418   1_556  A
C699        F706   1.348       .  S
C700        C701   1.410       .  A
C701        C702   1.409       .  A
C701        F708   1.358       .  S
C702        C703   1.425       .  A
C702        F707   1.356       .  S
C703        C704   1.425       .  A
C704        F705   1.355   1_554  S
C709        C710   1.402   1_455  A
C709        C714   1.411       .  A
C709        F716   1.358       .  S
C710        C711   1.403       .  A
C711        C712   1.409   1_655  A
C711        F718   1.355       .  S
C712        C713   1.422       .  A
C712        F717   1.357       .  S
C713        C714   1.431       .  A
C714        F715   1.355       .  S
C719        C720   1.406       .  A
C719        C724   1.409       .  A
C719        F726   1.357       .  S
C720        C721   1.403       .  A
C721        C722   1.406       .  A
C721        F728   1.354       .  S
C722        C723   1.422       .  A
C722        F727   1.357   1_655  S
C723        C724   1.424       .  A
C724        F725   1.357   1_556  S
C729        C730   1.405       .  A
C729        C734   1.393       .  A
C729        F736   1.356       .  S
C730        C731   1.396       .  A
C731        C732   1.396       .  A
C731        F738   1.356   1_545  S
C732        C733   1.417       .  A
C732        F737   1.355   1_545  S
C733        C734   1.406       .  A
C734        F735   1.357       .  S
C739        C740   1.411       .  A
C739        C744   1.395   1_455  A
C739        F746   1.344   1_455  S
C740        C741   1.407       .  A
C741        C742   1.404       .  A
C741        F748   1.357       .  S
C742        C743   1.409       .  A
C742        F747   1.356       .  S
C743        C744   1.395   1_455  A
C744        F745   1.356       .  S
C749        C750   1.407       .  A
C749        C754   1.418       .  A
C749        F756   1.355       .  S
C750        C751   1.410       .  A
C751        C752   1.426       .  A
C751        F758   1.357       .  S
C752        C753   1.429       .  A
C752        F757   1.357       .  S
C753        C754   1.431       .  A
C754        F755   1.354       .  S
C759        C760   1.422       .  A
C759        C764   1.418       .  A
C759        F766   1.356       .  S
C760        C761   1.436       .  A
C761        C762   1.409       .  A
C761        F768   1.359       .  S
C762        C763   1.405       .  A
C762        F767   1.358       .  S
C763        C764   1.409       .  A
C764        F765   1.348   1_455  S
C769        C770   1.408       .  A
C769        C774   1.401       .  A
C769        F776   1.357       .  S
C770        C771   1.410       .  A
C771        C772   1.391       .  A
C771        F778   1.358       .  S
C772        C773   1.398       .  A
C772        F777   1.347       .  S
C773        C774   1.404       .  A
C774        F775   1.354       .  S
C779        C780   1.398   1_455  A
C779        C784   1.411       .  A
C779        F786   1.357   1_455  S
C780        C781   1.412   1_655  A
C781        C782   1.397       .  A
C781        F788   1.353       .  S
C782        C783   1.409       .  A
C782        F787   1.355       .  S
C783        C784   1.434       .  A
C784        F785   1.354       .  S
C789        C790   1.414       .  A
C789        C794   1.407       .  A
C789        F796   1.356       .  S
C790        C791   1.403       .  A
C791        C792   1.416       .  A
C791        F798   1.357   1_545  S
C792        C793   1.432       .  A
C792        F797   1.355       .  S
C793        C794   1.417       .  A
C794        F795   1.355       .  S
C799        C800   1.418       .  A
C799        C804   1.402       .  A
C799        F806   1.357       .  S
C800        C801   1.409       .  A
C801        C802   1.407       .  A
C801        F808   1.356   1_655  S
C802        C803   1.404       .  A
C802        F807   1.354       .  S
C803        C804   1.399       .  A
C804        F805   1.353       .  S
C809        C810   1.428       .  A
C809        C814   1.404       .  A
C809        F816   1.355       .  S
C810        C811   1.425       .  A
C811        C812   1.418       .  A
C811        F818   1.358       .  S
C812        C813   1.409       .  A
C812        F817   1.356       .  S
C813        C814   1.409       .  A
C814        F815   1.357   1_565  S
C819        C820   1.406       .  A
C819        C824   1.411       .  A
C819        F826   1.355   1_565  S
C820        C821   1.386       .  A
C821        C822   1.387       .  A
C821        F828   1.355       .  S
C822        C823   1.434       .  A
C822        F827   1.354       .  S
C823        C824   1.421       .  A
C824        F825   1.358       .  S
C829        C830   1.420       .  A
C829        C834   1.405       .  A
C829        F836   1.355       .  S
C830        C831   1.426       .  A
C831        C832   1.400       .  A
C831        F838   1.353       .  S
C832        C833   1.403       .  A
C832        F837   1.358       .  S
C833        C834   1.403       .  A
C834        F835   1.352       .  S
C839        C840   1.429       .  A
C839        C844   1.414       .  A
C839        F846   1.354       .  S
C840        C841   1.426       .  A
C841        C842   1.399       .  A
C841        F848   1.353       .  S
C842        C843   1.404       .  A
C842        F847   1.358       .  S
C843        C844   1.407       .  A
C844        F845   1.357   1_556  S
