geometry optimzed in LAMMPS
_audit_creation_date              2020-11-30 
_audit_creation_method            'lammps2cif' 
_symmetry_space_group_name_H-M    'P1' 
_symmetry_Int_Tables_number       1 
_symmetry_cell_setting            triclinic 
loop_ 
_symmetry_equiv_pos_as_xyz 
  x,y,z 
_cell_length_a                    35.20617071 
_cell_length_b                    35.97233320972151 
_cell_length_c                    71.80118702353056 
_cell_angle_alpha                 89.7828668499695 
_cell_angle_beta                  89.28985980392116 
_cell_angle_gamma                 119.05370463703123 
loop_ 
_atom_site_label 
_atom_site_type_symbol 
_atom_site_fract_x 
_atom_site_fract_y 
_atom_site_fract_z 
_atom_site_charge 
O1          O  0.69978006  0.27038420  0.02218946    -0.80800
O2          O  0.70009773  0.42110626  0.97741878    -0.65500
O3          O  0.68336177  0.33795998  0.01460863    -1.12100
C4          C  0.57349221  0.24527277  0.97309570     1.06100
O5          O  0.62910459  0.39680562  0.97787122    -0.78700
O6          O  0.56721244  0.32439885  0.99327929    -0.66300
Ni7        Ni  0.73039109  0.33144960  0.02341440     1.34900
C8          C  0.56748600  0.31119269  0.00963885     0.84800
O9          O  0.73824546  0.42638069  0.01006208    -0.79300
O10         O  0.76651012  0.39179782  0.02576991    -0.89500
C11         C  0.66749475  0.42623089  0.97421661     0.84400
O12         O  0.75510225  0.33243108  0.99984067    -0.67700
O13         O  0.57638256  0.27863725  0.96542612    -0.87000
C14         C  0.76081487  0.35406491  0.98509914     0.85200
C15         C  0.76672168  0.42593189  0.02073735     1.06800
H16         H  0.66526572  0.32644694  0.97247044     0.38600
O17         O  0.65130830  0.33296900  0.98264398    -1.09700
O18         O  0.59510265  0.30011393  0.01479617    -0.66300
Ni19       Ni  0.63854411  0.29123644  0.00156911     1.26300
O20         O  0.74065444  0.37501289  0.98210866    -0.66600
O21         O  0.59469340  0.24554553  0.98742528    -0.78900
C22         C  0.66013637  0.24306260  0.02501065     0.84600
O23         O  0.62974962  0.25059555  0.02066980    -0.66000
Ni24       Ni  0.60456503  0.33757307  0.97199863     1.27400
Ni25       Ni  0.69488345  0.38031028  0.99586889     1.26100
H26         H  0.67075379  0.34441054  0.02531529     0.39100
O27         O  0.76407390  0.36657856  0.51532159    -0.80800
O28         O  0.61626858  0.37461115  0.48068301    -0.65500
O29         O  0.67840773  0.34449259  0.51507642    -1.12100
C30         C  0.65381138  0.23958213  0.47023787     1.06100
O31         O  0.56681451  0.30750501  0.48385822    -0.78700
O32         O  0.57548154  0.24329278  0.49726724    -0.66300
Ni33       Ni  0.72801538  0.38640410  0.52672189     1.34900
C34         C  0.59399856  0.23648519  0.51081711     0.84800
O35         O  0.65146192  0.40650372  0.51416985    -0.79300
O36         O  0.69310647  0.40765467  0.53802619    -0.89500
C37         C  0.57777179  0.34480730  0.47811251     0.84400
O38         O  0.74873769  0.43081771  0.50837153    -0.67700
O39         O  0.62009505  0.24289922  0.46652682    -0.87000
C40         C  0.73889991  0.43079973  0.49144960     0.85200
C41         C  0.66703017  0.41821510  0.53045512     1.06800
H42         H  0.66629784  0.33107482  0.47210351     0.38600
O43         O  0.64907539  0.31844333  0.48325572    -1.09700
O44         O  0.63496887  0.25772057  0.51324901    -0.66300
Ni45       Ni  0.68252116  0.30385928  0.49919098     1.26300
O46         O  0.70238217  0.40307182  0.48509638    -0.66600
O47         O  0.68230366  0.26250655  0.48221706    -0.78900
C48         C  0.75918123  0.32976945  0.51842309     0.84600
O49         O  0.72284313  0.29695526  0.51499127    -0.66000
Ni50       Ni  0.59470981  0.27631868  0.47520608     1.27400
Ni51       Ni  0.64965301  0.36248454  0.49818503     1.26100
H52         H  0.65779830  0.32911998  0.52500480     0.39100
O53         O  0.81314431  0.04775994  0.72996667    -0.74400
O54         O  0.76807634  0.96241786  0.76887964    -0.74400
O55         O  0.81147356  0.04782360  0.76788319    -0.74400
O56         O  0.76875473  0.96129677  0.73079816    -0.74500
O57         O  0.83145831  0.96002087  0.73091302    -0.74400
O58         O  0.87475854  0.04752642  0.76756096    -0.74400
O59         O  0.83095304  0.96134311  0.76885014    -0.74400
O60         O  0.87523054  0.04529022  0.72989229    -0.74400
Ni61       Ni  0.78804396  0.00477849  0.74934393     1.25400
Ni62       Ni  0.85525891  0.00342352  0.74935392     1.25400
C63         C  0.85163155  0.06026358  0.72342563     0.87800
C64         C  0.79265003  0.94866844  0.77549271     0.87800
C65         C  0.85012711  0.06182602  0.77379158     0.87800
C66         C  0.79337236  0.94708111  0.72444147     0.87900
O67         O  0.18490816  0.13563006  0.73146230    -0.74400
O68         O  0.13828226  0.17627688  0.76982276    -0.74400
O69         O  0.13816874  0.17768003  0.73194228    -0.74400
O70         O  0.18370385  0.13412398  0.76890318    -0.74500
O71         O  0.24570047  0.19566551  0.76877475    -0.74400
O72         O  0.19980282  0.23973015  0.73173674    -0.74400
O73         O  0.19977625  0.23825102  0.76982250    -0.74400
O74         O  0.24609417  0.19808237  0.73112283    -0.74400
Ni75       Ni  0.15900224  0.15383820  0.75048231     1.25400
Ni76       Ni  0.22499742  0.22023876  0.75036504     1.25400
C77         C  0.22354570  0.16006064  0.72525430     0.87800
C78         C  0.16177044  0.21341048  0.77656595     0.87800
C79         C  0.16160465  0.21552293  0.72558488     0.87800
C80         C  0.22218811  0.15744557  0.77486215     0.87900
O81         O  0.05923687  0.89337003  0.76656825    -0.74400
O82         O  0.96105444  0.84554375  0.73385605    -0.74400
O83         O  0.97155892  0.85158013  0.77137001    -0.74400
O84         O  0.04833739  0.88821593  0.72936535    -0.74500
O85         O  0.05192541  0.82807506  0.73002412    -0.74400
O86         O  0.96927352  0.78859332  0.77104922    -0.74400
O87         O  0.96437466  0.78517341  0.73306370    -0.74400
O88         O  0.05714243  0.83042237  0.76782593    -0.74400
Ni89       Ni  0.00993081  0.87180400  0.75030044     1.25400
Ni90       Ni  0.01062554  0.80578960  0.75052377     1.25400
C91         C  0.07407218  0.86939394  0.77264563     0.87800
C92         C  0.94764669  0.80786317  0.72764052     0.87800
C93         C  0.95763239  0.81425419  0.77823761     0.87800
C94         C  0.06327488  0.86480733  0.72281468     0.87900
C95         C  0.03443093  0.34465627  0.59514256     0.02400
C96         C  0.98862582  0.31794428  0.59357257     0.02300
C97         C  0.96614861  0.28670385  0.60751306    -0.18200
C98         C  0.98775306  0.27996966  0.62226829     0.02400
C99         C  0.03318136  0.30583046  0.62366621     0.02300
C100        C  0.05578729  0.33764078  0.61017638    -0.18200
H101        H  0.09072105  0.35697684  0.61134167     0.04400
H102        H  0.93118637  0.26685034  0.60683346     0.04400
C103        C  0.33084581  0.99301524  0.59548203     0.02400
C104        C  0.36427214  0.03524584  0.59862145     0.02300
C105        C  0.36145894  0.05665108  0.61449576    -0.18200
C106        C  0.32654212  0.03727047  0.62723165     0.02400
C107        C  0.29225021  0.99574618  0.62352894     0.02300
C108        C  0.29514290  0.97435743  0.60781659    -0.18200
H109        H  0.26968869  0.94203913  0.60548120     0.04400
H110        H  0.38668199  0.08896964  0.61697101     0.04400
C111        C  0.67579255  0.70718352  0.91058332     0.02400
C112        C  0.70419998  0.68965702  0.91208931     0.02300
C113        C  0.73978796  0.70338971  0.89956994    -0.18200
C114        C  0.74733292  0.73308139  0.88535733     0.02400
C115        C  0.71840798  0.74973338  0.88358620     0.02300
C116        C  0.68412494  0.73768462  0.89648096    -0.18200
H117        H  0.66279381  0.75134693  0.89510049     0.04400
H118        H  0.76119289  0.68970967  0.90047773     0.04400
C119        C  0.67050832  0.64693350  0.60789876     0.02400
C120        C  0.64868947  0.67087250  0.60606547     0.02300
C121        C  0.66135168  0.70732392  0.61682294    -0.18200
C122        C  0.69490248  0.72016153  0.62964529     0.02400
C123        C  0.71514567  0.69481297  0.63241364     0.02300
C124        C  0.70322682  0.65900562  0.62126354    -0.18200
H125        H  0.71964416  0.64038924  0.62300359     0.04400
H126        H  0.64545975  0.72639845  0.61490330     0.04400
C127        C  0.37916795  0.02061311  0.88903823     0.02400
C128        C  0.36601960  0.97754511  0.88517056     0.02300
C129        C  0.33998984  0.95843967  0.86954989    -0.18200
C130        C  0.32497114  0.98072906  0.85836308     0.02400
C131        C  0.33743113  0.02352673  0.86278723     0.02300
C132        C  0.36555685  0.04317821  0.87747908    -0.18200
H133        H  0.37517218  0.07605040  0.88057743     0.04400
H134        H  0.32917186  0.92522448  0.86674655     0.04400
C135        C  0.96958620  0.32137691  0.89928373     0.02400
C136        C  0.01491394  0.33865867  0.90213206     0.02300
C137        C  0.03910793  0.32711911  0.89004153    -0.18200
C138        C  0.01969871  0.29818069  0.87566374     0.02400
C139        C  0.97451020  0.28129969  0.87253915     0.02300
C140        C  0.95026280  0.29321090  0.88443849    -0.18200
H141        H  0.91573727  0.28016331  0.88220401     0.04400
H142        H  0.07384674  0.34072370  0.89186733     0.04400
O143        O  0.42869500  0.68996357  0.51909870    -0.80800
O144        O  0.27425060  0.69504683  0.48231548    -0.65500
O145        O  0.34444063  0.67529586  0.51680744    -1.12100
C146        C  0.33657324  0.57793062  0.47018786     1.06100
O147        O  0.23285683  0.62511394  0.48189518    -0.78700
O148        O  0.24878464  0.56201845  0.49172263    -0.66300
Ni149      Ni  0.39666400  0.71819812  0.52635833     1.34900
C150        C  0.25920036  0.56235078  0.50861067     0.84800
O151        O  0.31015635  0.73170631  0.51553878    -0.79300
O152        O  0.36789237  0.74895041  0.53388044    -0.89500
C153        C  0.23836847  0.66210333  0.47842292     0.84400
O154        O  0.41860687  0.75318599  0.50477564    -0.67700
O155        O  0.30743963  0.58416797  0.46266181    -0.87000
C156        C  0.40224943  0.75811177  0.48996676     0.85200
C157        C  0.33636853  0.75409060  0.52836273     1.06800
H158        H  0.33985833  0.66378414  0.47478981     0.38600
O159        O  0.31900586  0.64853929  0.48457061    -1.09700
O160        O  0.29572890  0.59021150  0.51479091    -0.66300
Ni161      Ni  0.34804075  0.63269123  0.50227799     1.26300
O162        O  0.36206132  0.73507313  0.48613427    -0.66600
O163        O  0.35129645  0.59070375  0.48649964    -0.78900
C164        C  0.41835922  0.65213036  0.52381179     0.84600
O165        O  0.38060436  0.62194627  0.52060125    -0.66000
Ni166      Ni  0.27074920  0.60508212  0.47256139     1.27400
Ni167      Ni  0.31262387  0.68932155  0.49957235     1.26100
H168        H  0.32566611  0.66191785  0.52739044     0.39100
O169        O  0.36263093  0.59964063  0.02187923    -0.80800
O170        O  0.37702091  0.74302261  0.97553174    -0.65500
O171        O  0.34441172  0.66485661  0.01600192    -1.12100
C172        C  0.22692701  0.57706295  0.97871473     1.06100
O173        O  0.30975885  0.73303441  0.97408294    -0.78700
O174        O  0.25214615  0.67799317  0.99903368    -0.66300
Ni175      Ni  0.38724010  0.65806167  0.02864554     1.34900
C176        C  0.24149572  0.65352440  0.01315735     0.84800
O177        O  0.40973752  0.74983755  0.00984992    -0.79300
O178        O  0.41289087  0.71615024  0.03583543    -0.89500
C179        C  0.35017731  0.75453767  0.97016697     0.84400
O180        O  0.43016202  0.67242835  0.00926955    -0.67700
O181        O  0.22902712  0.61256179  0.97448071    -0.87000
C182        C  0.42979029  0.67924576  0.99194403     0.85200
C183        C  0.42208940  0.74993577  0.02656607     1.06800
H184        H  0.32569586  0.65109738  0.97294640     0.38600
O185        O  0.31507052  0.65985024  0.98359753    -1.09700
O186        O  0.25577788  0.62729149  0.01571935    -0.66300
Ni187      Ni  0.29999283  0.61804432  0.00293269     1.26300
O188        O  0.40147582  0.68703447  0.98478498    -0.66600
O189        O  0.25523081  0.57401292  0.98864238    -0.78900
C190        C  0.32431499  0.57151380  0.02647066     0.84600
O191        O  0.29197794  0.57653612  0.02209479    -0.66000
Ni192      Ni  0.27157320  0.67215007  0.97506329     1.27400
Ni193      Ni  0.36279832  0.70481149  0.99609122     1.26100
H194        H  0.33069638  0.67411340  0.02523716     0.39100
O195        O  0.94247052  0.16209565  0.23572859    -0.74400
O196        O  0.03773197  0.20891688  0.26933640    -0.74400
O197        O  0.03070187  0.20733880  0.23171783    -0.74400
O198        O  0.95066822  0.16393099  0.27344208    -0.74500
O199        O  0.95538493  0.10439104  0.27314558    -0.74400
O200        O  0.03171022  0.14592908  0.23044735    -0.74400
O201        O  0.04280553  0.14951999  0.26776248    -0.74400
O202        O  0.94435708  0.10109550  0.23535486    -0.74400
Ni203      Ni  0.99020097  0.18766048  0.25255068     1.25400
Ni204      Ni  0.99355042  0.12301587  0.25165677     1.25400
C205        C  0.92770548  0.12398780  0.22987638     0.87800
C206        C  0.05606125  0.18712268  0.27397462     0.87800
C207        C  0.04442576  0.18364119  0.22420532     0.87800
C208        C  0.94080294  0.12748488  0.28052754     0.87900
O209        O  0.80727890  0.85188574  0.27019136    -0.74400
O210        O  0.85660534  0.81798789  0.23065800    -0.74400
O211        O  0.81089386  0.86025286  0.23306422    -0.74400
O212        O  0.85332720  0.80940948  0.26811432    -0.74500
O213        O  0.79078786  0.74837611  0.26710112    -0.74400
O214        O  0.75020579  0.79797868  0.23034810    -0.74400
O215        O  0.79597874  0.75542541  0.22925731    -0.74400
O216        O  0.74501841  0.79078859  0.26809609    -0.74400
Ni217      Ni  0.83425440  0.83695587  0.25060522     1.25400
Ni218      Ni  0.76825307  0.77085516  0.24861762     1.25400
C219        C  0.76782843  0.82745653  0.27532338     0.87800
C220        C  0.83453302  0.78131455  0.22335504     0.87800
C221        C  0.77354329  0.83739850  0.22595465     0.87800
C222        C  0.82897981  0.77091104  0.27357336     0.87900
C223        C  0.67065478  0.00281979  0.40705454     0.02400
C224        C  0.63913826  0.95993787  0.40403579     0.02300
C225        C  0.64626446  0.93828980  0.38928307    -0.18200
C226        C  0.68367448  0.95830255  0.37775955     0.02400
C227        C  0.71630383  0.00044931  0.38171884     0.02300
C228        C  0.70909224  0.02192072  0.39632807    -0.18200
H229        H  0.73295897  0.05477507  0.39888257     0.04400
H230        H  0.62230874  0.90559616  0.38659659     0.04400
O231        O  0.18224046  0.94983606  0.27154500    -0.74400
O232        O  0.22718765  0.03504473  0.23260274    -0.74400
O233        O  0.22729265  0.03608721  0.27019904    -0.74400
O234        O  0.18275172  0.94906418  0.23334140    -0.74500
O235        O  0.12039010  0.95106921  0.23337585    -0.74400
O236        O  0.16466438  0.03752991  0.27077141    -0.74400
O237        O  0.16539658  0.03814763  0.23322228    -0.74400
O238        O  0.12008401  0.95201770  0.27125207    -0.74400
Ni239      Ni  0.20700997  0.99227295  0.25191466     1.25400
Ni240      Ni  0.14034431  0.99459189  0.25209823     1.25400
C241        C  0.14396711  0.93786298  0.27821447     0.87800
C242        C  0.20402741  0.05127300  0.22686836     0.87800
C243        C  0.20356687  0.05139173  0.27643757     0.87800
C244        C  0.14447166  0.93608995  0.22712516     0.87900
C245        C  0.65252575  0.02003561  0.10796705     0.02400
C246        C  0.62389336  0.97580075  0.10939029     0.02300
C247        C  0.62927914  0.95279803  0.12405417    -0.18200
C248        C  0.66320863  0.97230761  0.13674001     0.02400
C249        C  0.69366553  0.01618955  0.13450688     0.02300
C250        C  0.68710013  0.03967547  0.12048926    -0.18200
H251        H  0.70975649  0.07338694  0.11899383     0.04400
H252        H  0.60740163  0.91888856  0.12536847     0.04400
C253        C  0.36576028  0.34077109  0.38835465     0.02400
C254        C  0.34727681  0.36759677  0.38568022     0.02300
C255        C  0.31828419  0.35908921  0.37091421    -0.18200
C256        C  0.30635221  0.32372322  0.35938362     0.02400
C257        C  0.32422696  0.29651474  0.36265323     0.02300
C258        C  0.35453179  0.30604552  0.37665286    -0.18200
H259        H  0.36804363  0.28503032  0.37903671     0.04400
H260        H  0.30346861  0.37905370  0.36885085     0.04400
C261        C  0.33830534  0.30527812  0.09620464     0.02400
C262        C  0.30805315  0.32039920  0.09360029     0.02300
C263        C  0.27324143  0.30793254  0.10644360    -0.18200
C264        C  0.26805762  0.28187708  0.12187259     0.02400
C265        C  0.29913763  0.26832203  0.12508188     0.02300
C266        C  0.33312210  0.27951640  0.11198588    -0.18200
H267        H  0.35594346  0.26787934  0.11412855     0.04400
H268        H  0.25017009  0.31944385  0.10468313     0.04400
C269        C  0.96143007  0.65709788  0.40709515     0.02400
C270        C  0.00656520  0.68519783  0.40958557     0.02300
C271        C  0.02867016  0.71967508  0.39708155    -0.18200
C272        C  0.00799105  0.72684059  0.38206724     0.02400
C273        C  0.96349417  0.69778212  0.37890483     0.02300
C274        C  0.94092501  0.66421328  0.39173779    -0.18200
H275        H  0.90667197  0.64298664  0.38960511     0.04400
H276        H  0.06309130  0.74112035  0.39879539     0.04400
C277        C  0.98402436  0.66549702  0.09581387     0.02400
C278        C  0.02935355  0.68119621  0.09853622     0.02300
C279        C  0.04980592  0.70807334  0.11374865    -0.18200
C280        C  0.02675270  0.71984295  0.12633290     0.02400
C281        C  0.98184360  0.70449526  0.12343473     0.02300
C282        C  0.96125971  0.67721051  0.10862740    -0.18200
H283        H  0.92656241  0.66471245  0.10723858     0.04400
H284        H  0.08429111  0.72022887  0.11576350     0.04400
C285        C  0.01880013  0.84677768  0.34470526    -0.17800
C286        C  0.03641984  0.87434494  0.32941328    -0.19900
C287        C  0.07320363  0.87804837  0.31992212     0.20700
C288        C  0.09299200  0.85437487  0.32605142    -0.02900
C289        C  0.07484870  0.82609391  0.34137350    -0.05900
C290        C  0.03745815  0.82219448  0.35066174     0.21000
C291        C  0.09330062  0.80083856  0.34702946     0.19200
C292        C  0.13088022  0.80553003  0.33785722    -0.17400
C293        C  0.14933909  0.83416069  0.32286696    -0.19600
C294        C  0.13026657  0.85827511  0.31663847     0.20600
C295        C  0.14730486  0.88571801  0.30104269    -0.32600
C296        C  0.12695337  0.90863588  0.29459696     0.01300
C297        C  0.09011941  0.90469977  0.30427321    -0.24000
C298        C  0.01815508  0.79238235  0.36517352    -0.28500
C299        C  0.03404411  0.76448981  0.36974984     0.07000
C300        C  0.07270112  0.77007515  0.36116932    -0.27200
H301        H  0.98997315  0.84397547  0.35161485     0.11700
H302        H  0.02097153  0.89246920  0.32487948     0.12900
H303        H  0.14562599  0.78655998  0.34209186     0.11900
H304        H  0.17805883  0.83682408  0.31591340     0.11200
H305        H  0.17587096  0.88873022  0.29379415     0.16600
H306        H  0.07452638  0.92266719  0.29968570     0.12500
H307        H  0.98887849  0.78868899  0.37202354     0.15300
H308        H  0.08532193  0.74889460  0.36477780     0.15100
C309        C  0.14225783  0.85749338  0.15013818    -0.17800
C310        C  0.15811196  0.88808973  0.16417882    -0.19900
C311        C  0.13629421  0.88021641  0.18146590     0.20700
C312        C  0.09849418  0.84081632  0.18472604    -0.02900
C313        C  0.08343500  0.80937046  0.17079142    -0.05900
C314        C  0.10487182  0.81805210  0.15326859     0.21000
C315        C  0.04655491  0.76949378  0.17431221     0.19200
C316        C  0.02436742  0.76173174  0.19148784    -0.17400
C317        C  0.03842109  0.79333284  0.20504943    -0.19600
C318        C  0.07550420  0.83292916  0.20184912     0.20600
C319        C  0.09006100  0.86471311  0.21546297    -0.32600
C320        C  0.12820971  0.90357044  0.21245529     0.01300
C321        C  0.15141101  0.91102546  0.19551963    -0.24000
C322        C  0.08760719  0.78777041  0.13901874    -0.28500
C323        C  0.04985502  0.74846463  0.14224931     0.07000
C324        C  0.03145513  0.73864492  0.16034878    -0.27200
H325        H  0.15920702  0.86473554  0.13680127     0.11700
H326        H  0.18710962  0.91819514  0.16141336     0.12900
H327        H  0.99558169  0.73147393  0.19429161     0.11900
H328        H  0.02036566  0.78672300  0.21808855     0.11200
H329        H  0.07240744  0.85890639  0.22858789     0.16600
H330        H  0.18075985  0.94114044  0.19319539     0.12500
H331        H  0.10235646  0.79550256  0.12520936     0.15300
H332        H  0.00327064  0.70793249  0.16315466     0.15100
C333        C  0.18446867  0.13086208  0.32831420    -0.17800
C334        C  0.20202344  0.16370240  0.34123624    -0.19900
C335        C  0.24691566  0.19160833  0.34143210     0.20700
C336        C  0.27456241  0.18643591  0.32856949    -0.02900
C337        C  0.25693384  0.15283802  0.31575807    -0.05900
C338        C  0.21162294  0.12510340  0.31555511     0.21000
C339        C  0.28457633  0.14726868  0.30304386     0.19200
C340        C  0.32941789  0.17571756  0.30302564    -0.17400
C341        C  0.34679192  0.20963677  0.31545698    -0.19600
C342        C  0.31967123  0.21527287  0.32828060     0.20600
C343        C  0.33649643  0.25002098  0.34036825    -0.32600
C344        C  0.30864504  0.25596789  0.35265973     0.01300
C345        C  0.26439310  0.22563897  0.35376463    -0.24000
C346        C  0.19427397  0.09216584  0.30257324    -0.28500
C347        C  0.22174926  0.08600713  0.29010721     0.07000
C348        C  0.26685011  0.11353728  0.29048060    -0.27200
H349        H  0.14963791  0.10993777  0.32830720     0.11700
H350        H  0.18040882  0.16767837  0.35089913     0.12900
H351        H  0.35100962  0.17196899  0.29326631     0.11900
H352        H  0.38141792  0.23155133  0.31499395     0.11200
H353        H  0.37066152  0.27356841  0.33958685     0.16600
H354        H  0.24315483  0.23035012  0.36338688     0.12500
H355        H  0.15948118  0.07095970  0.30233386     0.15300
H356        H  0.28808431  0.10921676  0.28071214     0.15100
C357        C  0.29189094  0.13795959  0.15214343    -0.17800
C358        C  0.27802078  0.10741604  0.16644064    -0.19900
C359        C  0.25942994  0.11284409  0.18289158     0.20700
C360        C  0.25631214  0.15020294  0.18528821    -0.02900
C361        C  0.27202998  0.18183048  0.17116972    -0.05900
C362        C  0.28849647  0.17500103  0.15426189     0.21000
C363        C  0.27028578  0.21977004  0.17377637     0.19200
C364        C  0.25220155  0.22555487  0.19032837    -0.17400
C365        C  0.23491541  0.19342868  0.20399605    -0.19600
C366        C  0.23666401  0.15554301  0.20158616     0.20600
C367        C  0.21886070  0.12271905  0.21504396    -0.32600
C368        C  0.22220124  0.08557739  0.21271368     0.01300
C369        C  0.24322380  0.08122775  0.19682072    -0.24000
C370        C  0.29928785  0.20431163  0.13948329    -0.28500
C371        C  0.29564034  0.24132979  0.14167270     0.07000
C372        C  0.28481797  0.25037974  0.15943638    -0.27200
H373        H  0.30484254  0.13237772  0.13933707     0.11700
H374        H  0.28077283  0.07897789  0.16442369     0.12900
H375        H  0.25014842  0.25435106  0.19243605     0.11900
H376        H  0.22011200  0.19818242  0.21643040     0.11200
H377        H  0.20308893  0.12626991  0.22745467     0.16600
H378        H  0.24565723  0.05252734  0.19504690     0.12500
H379        H  0.30849930  0.19726511  0.12604469     0.15300
H380        H  0.28485586  0.28010753  0.16172056     0.15100
C381        C  0.96491278  0.73759022  0.31279092    -0.17800
C382        C  0.94700661  0.74977549  0.29828193    -0.19900
C383        C  0.90514981  0.74501647  0.30016700     0.20700
C384        C  0.88105760  0.72778731  0.31683025    -0.02900
C385        C  0.89990622  0.71721511  0.33175899    -0.05900
C386        C  0.94173882  0.72158707  0.32961235     0.21000
C387        C  0.87726712  0.70309222  0.34892691     0.19200
C388        C  0.83498753  0.69739631  0.35066741    -0.17400
C389        C  0.81560267  0.70630206  0.33563033    -0.19600
C390        C  0.83860573  0.72215924  0.31875512     0.20600
C391        C  0.82057767  0.73384606  0.30400127    -0.32600
C392        C  0.84534151  0.75294968  0.28779519     0.01300
C393        C  0.88738614  0.75816796  0.28588789    -0.24000
C394        C  0.96024525  0.71110880  0.34450581    -0.28500
C395        C  0.94001101  0.70128119  0.36226186     0.07000
C396        C  0.89784004  0.69622445  0.36418139    -0.27200
H397        H  0.99736566  0.74173169  0.31103802     0.11700
H398        H  0.96593926  0.76300940  0.28559555     0.12900
H399        H  0.81699015  0.68628679  0.36370386     0.11900
H400        H  0.78302232  0.70182816  0.33736172     0.11200
H401        H  0.78828733  0.73029819  0.30550295     0.16600
H402        H  0.90632950  0.77280886  0.27332317     0.12500
H403        H  0.99158836  0.71280560  0.34250355     0.15300
H404        H  0.88146200  0.68809819  0.37765472     0.15100
C405        C  0.96371676  0.81237305  0.15839784    -0.17800
C406        C  0.94441090  0.82289533  0.17307191    -0.19900
C407        C  0.90900915  0.79094291  0.18305390     0.20700
C408        C  0.89280046  0.74794763  0.17825108    -0.02900
C409        C  0.91264374  0.73729231  0.16360312    -0.05900
C410        C  0.94813145  0.76972253  0.15359309     0.21000
C411        C  0.89747209  0.69420999  0.15919553     0.19200
C412        C  0.86196432  0.66228069  0.16914186    -0.17400
C413        C  0.84179178  0.67290376  0.18346959    -0.19600
C414        C  0.85710991  0.71560620  0.18820670     0.20600
C415        C  0.83767396  0.72656372  0.20281246    -0.32600
C416        C  0.85407830  0.76936984  0.20778431     0.01300
C417        C  0.88972651  0.80129786  0.19782410    -0.24000
C418        C  0.96836197  0.75885701  0.13937831    -0.28500
C419        C  0.95526017  0.71597694  0.13581988     0.07000
C420        C  0.91899595  0.68381872  0.14534482    -0.27200
H421        H  0.99121947  0.83755513  0.15096994     0.11700
H422        H  0.95723943  0.85604655  0.17664667     0.12900
H423        H  0.84996786  0.62906272  0.16591876     0.11900
H424        H  0.81449795  0.64768604  0.19098137     0.11200
H425        H  0.81032042  0.70179381  0.21049504     0.16600
H426        H  0.90234287  0.83440087  0.20147511     0.12500
H427        H  0.99601691  0.78361026  0.13182744     0.15300
H428        H  0.90883483  0.65072857  0.14252744     0.15100
C429        C  0.72516091  0.95734796  0.31212943    -0.17800
C430        C  0.73874052  0.93969672  0.29798204    -0.19900
C431        C  0.73611395  0.89983622  0.30056724     0.20700
C432        C  0.71899659  0.87712565  0.31742639    -0.02900
C433        C  0.70639152  0.89545156  0.33187450    -0.05900
C434        C  0.70946992  0.93570702  0.32917263     0.21000
C435        C  0.69185984  0.87403987  0.34917414     0.19200
C436        C  0.68807452  0.83362915  0.35155574    -0.17400
C437        C  0.69952002  0.81492989  0.33704705    -0.19600
C438        C  0.71564735  0.83667268  0.32004000     0.20600
C439        C  0.72972671  0.81936046  0.30580063    -0.32600
C440        C  0.74854579  0.84285785  0.28941256     0.01300
C441        C  0.75131901  0.88275303  0.28677768    -0.24000
C442        C  0.69835362  0.95433826  0.34379718    -0.28500
C443        C  0.68756085  0.93489687  0.36152342     0.07000
C444        C  0.68294578  0.89412006  0.36396684    -0.27200
H445        H  0.72797948  0.98841400  0.30991988     0.11700
H446        H  0.75169005  0.95739810  0.28508250     0.12900
H447        H  0.67675329  0.81669644  0.36472157     0.11900
H448        H  0.69672692  0.78388764  0.33928150     0.11200
H449        H  0.72794983  0.78864656  0.30776871     0.16600
H450        H  0.76563112  0.90055647  0.27399388     0.12500
H451        H  0.70045047  0.98514597  0.34170635     0.15300
H452        H  0.67406737  0.87880172  0.37756273     0.15100
C453        C  0.71448137  0.96406741  0.19885981    -0.17800
C454        C  0.73540559  0.94849330  0.21040405    -0.19900
C455        C  0.73778029  0.91194371  0.20547483     0.20700
C456        C  0.71977135  0.89144815  0.18854940    -0.02900
C457        C  0.70031886  0.90820740  0.17656179    -0.05900
C458        C  0.69688806  0.94414518  0.18192811     0.21000
C459        C  0.68502645  0.88945854  0.15907065     0.19200
C460        C  0.68736613  0.85292992  0.15412001    -0.17400
C461        C  0.70479530  0.83511107  0.16638995    -0.19600
C462        C  0.72127856  0.85425064  0.18356767     0.20600
C463        C  0.73896859  0.83671676  0.19591329    -0.32600
C464        C  0.75677692  0.85692305  0.21275013     0.01300
C465        C  0.75714985  0.89504454  0.21728148    -0.24000
C466        C  0.67820400  0.96099419  0.16977334    -0.28500
C467        C  0.66821135  0.94584695  0.15145851     0.07000
C468        C  0.66972422  0.90882475  0.14649324    -0.27200
H469        H  0.71299327  0.99230484  0.20295238     0.11700
H470        H  0.74927220  0.96473170  0.22329083     0.12900
H471        H  0.67575359  0.83816333  0.14074664     0.11900
H472        H  0.70591829  0.80667275  0.16233848     0.11200
H473        H  0.73927620  0.80756847  0.19240032     0.16600
H474        H  0.77087745  0.91046621  0.23034989     0.12500
H475        H  0.67575408  0.98876033  0.17382686     0.15300
H476        H  0.66158279  0.89664651  0.13247823     0.15100
C477        C  0.84086062  0.00528222  0.34670397    -0.17800
C478        C  0.87130170  0.02235968  0.33203932    -0.19900
C479        C  0.87807742  0.05947351  0.32265206     0.20700
C480        C  0.85511313  0.08044798  0.32857868    -0.02900
C481        C  0.82416291  0.06304714  0.34329258    -0.05900
C482        C  0.81651557  0.02490629  0.35219670     0.21000
C483        C  0.79969650  0.08293834  0.34857912     0.19200
C484        C  0.80786801  0.12108924  0.33979515    -0.17400
C485        C  0.83884212  0.13856041  0.32537602    -0.19600
C486        C  0.86194179  0.11800843  0.31939180     0.20600
C487        C  0.89072358  0.13367981  0.30403644    -0.32600
C488        C  0.91235551  0.11197267  0.29747258     0.01300
C489        C  0.90645942  0.07530146  0.30713932    -0.24000
C490        C  0.78334276  0.00609186  0.36580853    -0.28500
C491        C  0.75658828  0.02403942  0.37005785     0.07000
C492        C  0.76613917  0.06333946  0.36191596    -0.27200
H493        H  0.83551748  0.97606492  0.35341384     0.11700
H494        H  0.88890999  0.00601910  0.32778362     0.12900
H495        H  0.78959069  0.13693281  0.34379207     0.11900
H496        H  0.84391623  0.16759568  0.31857546     0.11200
H497        H  0.89529038  0.16216968  0.29686934     0.16600
H498        H  0.92348431  0.05868366  0.30244370     0.12500
H499        H  0.77663176  0.97623448  0.37232410     0.15300
H500        H  0.74583427  0.07747819  0.36521549     0.15100
C501        C  0.81504617  0.01071847  0.16545915    -0.17800
C502        C  0.84495347  0.02311291  0.17992077    -0.19900
C503        C  0.85212500  0.05751538  0.19129731     0.20700
C504        C  0.82811148  0.07898133  0.18830697    -0.02900
C505        C  0.79721236  0.06586834  0.17394989    -0.05900
C506        C  0.79127286  0.03207594  0.16228453     0.21000
C507        C  0.77212606  0.08639661  0.17135022     0.19200
C508        C  0.77886322  0.12040645  0.18288949    -0.17400
C509        C  0.81033525  0.13417684  0.19675606    -0.19600
C510        C  0.83511381  0.11369159  0.19958233     0.20600
C511        C  0.86708697  0.12763630  0.21332848    -0.32600
C512        C  0.89177123  0.10691794  0.21623936     0.01300
C513        C  0.88338652  0.07127869  0.20537446    -0.24000
C514        C  0.76055561  0.01922291  0.14807828    -0.28500
C515        C  0.73310152  0.03729883  0.14630843     0.07000
C516        C  0.73996115  0.07175885  0.15763543    -0.27200
H517        H  0.81020456  0.98413183  0.15685509     0.11700
H518        H  0.86283210  0.00605135  0.18207912     0.12900
H519        H  0.75987821  0.13648483  0.18114970     0.11900
H520        H  0.81517994  0.16079764  0.20533420     0.11200
H521        H  0.87293969  0.15487020  0.22170052     0.16600
H522        H  0.90219240  0.05510191  0.20744227     0.12500
H523        H  0.75562518  0.99289534  0.13925983     0.15300
H524        H  0.71896864  0.08581828  0.15632440     0.15100
C525        C  0.15482589  0.28162035  0.34412234    -0.17800
C526        C  0.11918579  0.26046292  0.33248391    -0.19900
C527        C  0.12381000  0.24423389  0.31537699     0.20700
C528        C  0.16478885  0.24958075  0.30984947    -0.02900
C529        C  0.20105397  0.27223951  0.32130133    -0.05900
C530        C  0.19587431  0.28773075  0.33865599     0.21000
C531        C  0.24233339  0.27894124  0.31549375     0.19200
C532        C  0.24682195  0.26197680  0.29855382    -0.17400
C533        C  0.21064819  0.23855407  0.28741810    -0.19600
C534        C  0.16954043  0.23237785  0.29287701     0.20600
C535        C  0.13323026  0.20996304  0.28156049    -0.32600
C536        C  0.09286541  0.20610170  0.28672152     0.01300
C537        C  0.08829300  0.22315234  0.30360785    -0.24000
C538        C  0.23142223  0.30756551  0.35054189    -0.28500
C539        C  0.27227047  0.31290926  0.34512986     0.07000
C540        C  0.27802601  0.30095083  0.32709689    -0.27200
H541        H  0.15028621  0.29324513  0.35740399     0.11700
H542        H  0.08789112  0.25647037  0.33693769     0.12900
H543        H  0.27820965  0.26627239  0.29405484     0.11900
H544        H  0.21488921  0.22555500  0.27446150     0.11200
H545        H  0.13667690  0.19708817  0.26840847     0.16600
H546        H  0.05698161  0.21993777  0.30754191     0.12500
H547        H  0.22676130  0.31665047  0.36440786     0.15300
H548        H  0.30969243  0.30573342  0.32274596     0.15100
C549        C  0.19398622  0.31482136  0.17292443    -0.17800
C550        C  0.16363290  0.30102194  0.18769915    -0.19900
C551        C  0.13432618  0.25754336  0.19041589     0.20700
C552        C  0.13585186  0.22772852  0.17811658    -0.02900
C553        C  0.16632756  0.24165019  0.16316361    -0.05900
C554        C  0.19555880  0.28543079  0.16055001     0.21000
C555        C  0.16801202  0.21164192  0.15103794     0.19200
C556        C  0.13918349  0.16819070  0.15386140    -0.17400
C557        C  0.10903205  0.15444300  0.16862699    -0.19600
C558        C  0.10721687  0.18389845  0.18085094     0.20600
C559        C  0.07745618  0.17013481  0.19583693    -0.32600
C560        C  0.07539268  0.19947082  0.20813504     0.01300
C561        C  0.10380453  0.24325589  0.20526751    -0.24000
C562        C  0.22671225  0.29880766  0.14600446    -0.28500
C563        C  0.22967810  0.26878135  0.13444319     0.07000
C564        C  0.19942627  0.22543388  0.13668636    -0.27200
H565        H  0.21642619  0.34851014  0.17124193     0.11700
H566        H  0.16320819  0.32438037  0.19705632     0.12900
H567        H  0.14021366  0.14476573  0.14473647     0.11900
H568        H  0.08726323  0.12067606  0.17055642     0.11200
H569        H  0.05565838  0.13638590  0.19789593     0.16600
H570        H  0.10277208  0.26605927  0.21479875     0.12500
H571        H  0.25039124  0.33220253  0.14438561     0.15300
H572        H  0.20192401  0.20235076  0.12781990     0.15100
C573        C  0.39090176  0.46852044  0.07153896    -0.17800
C574        C  0.39151327  0.50425620  0.06349019    -0.19900
C575        C  0.35500985  0.50057464  0.05419496     0.20700
C576        C  0.31754085  0.46054703  0.05287269    -0.02900
C577        C  0.31698225  0.42432864  0.06097141    -0.05900
C578        C  0.35376974  0.42844897  0.07045821     0.21000
C579        C  0.27930530  0.38429857  0.06001142     0.19200
C580        C  0.24285785  0.38071577  0.05063892    -0.17400
C581        C  0.24350793  0.41658295  0.04252122    -0.19600
C582        C  0.28059023  0.45680065  0.04362996     0.20600
C583        C  0.28165746  0.49319984  0.03553318    -0.32600
C584        C  0.31950429  0.53305345  0.03643082     0.01300
C585        C  0.35564804  0.53628789  0.04606051    -0.24000
C586        C  0.35211659  0.39295965  0.07949641    -0.28500
C587        C  0.31390951  0.35345805  0.07951689     0.07000
C588        C  0.27810773  0.34907644  0.06918388    -0.27200
H589        H  0.41933439  0.47233270  0.07881743     0.11700
H590        H  0.42055960  0.53487977  0.06459976     0.12900
H591        H  0.21358790  0.35020721  0.04978330     0.11900
H592        H  0.21487165  0.41288299  0.03546236     0.11200
H593        H  0.25374388  0.49030731  0.02810992     0.16600
H594        H  0.38485669  0.56686345  0.04705512     0.12500
H595        H  0.37942804  0.39682929  0.08770013     0.15300
H596        H  0.24841735  0.31873786  0.06924284     0.15100
C597        C  0.14208374  0.63840646  0.08787856    -0.17800
C598        C  0.17221607  0.63485853  0.07609762    -0.19900
C599        C  0.17516677  0.64560415  0.05710974     0.20700
C600        C  0.14698919  0.65967359  0.04996662    -0.02900
C601        C  0.11632900  0.66288681  0.06180698    -0.05900
C602        C  0.11414720  0.65255649  0.08088625     0.21000
C603        C  0.08838742  0.67713671  0.05458910     0.19200
C604        C  0.09097696  0.68754254  0.03561187    -0.17400
C605        C  0.12143112  0.68458782  0.02393238    -0.19600
C606        C  0.14970872  0.67100807  0.03101332     0.20600
C607        C  0.18081249  0.66887400  0.01942686    -0.32600
C608        C  0.20930060  0.65508423  0.02629996     0.01300
C609        C  0.20591653  0.64292716  0.04516988    -0.24000
C610        C  0.08465427  0.65733927  0.09266255    -0.28500
C611        C  0.05728156  0.67229368  0.08561300     0.07000
C612        C  0.05905434  0.68168300  0.06652157    -0.27200
H613        H  0.14082127  0.63032142  0.10250809     0.11700
H614        H  0.19347971  0.62404135  0.08188256     0.12900
H615        H  0.06975863  0.69843092  0.02983425     0.11900
H616        H  0.12306658  0.69321636  0.00935329     0.11200
H617        H  0.18251537  0.67766335  0.00485456     0.16600
H618        H  0.22759157  0.63220146  0.05058917     0.12500
H619        H  0.08331232  0.65000183  0.10739614     0.15300
H620        H  0.03845136  0.69370071  0.06108764     0.15100
C621        C  0.57842188  0.92622797  0.04468954    -0.17800
C622        C  0.54961464  0.89426457  0.03281968    -0.19900
C623        C  0.51082289  0.86024692  0.03989808     0.20700
C624        C  0.50010507  0.85981013  0.05897601    -0.02900
C625        C  0.52876177  0.89232973  0.07084985    -0.05900
C626        C  0.56874570  0.92503399  0.06382027     0.21000
C627        C  0.51830854  0.89078586  0.08998384     0.19200
C628        C  0.47906960  0.85765669  0.09701753    -0.17400
C629        C  0.45107681  0.82524767  0.08536009    -0.19600
C630        C  0.46170001  0.82571592  0.06645710     0.20600
C631        C  0.43551687  0.79150306  0.05518598    -0.32600
C632        C  0.44689297  0.79038798  0.03648877     0.01300
C633        C  0.48364569  0.82558087  0.02860255    -0.24000
C634        C  0.59914414  0.95435038  0.07624441    -0.28500
C635        C  0.58949474  0.95163797  0.09551761     0.07000
C636        C  0.54820962  0.92094957  0.10202065    -0.27200
H637        H  0.60878650  0.95130607  0.03898667     0.11700
H638        H  0.55837633  0.89541597  0.01822699     0.12900
H639        H  0.47068777  0.85604959  0.11168044     0.11900
H640        H  0.42159187  0.79922496  0.09123794     0.11200
H641        H  0.40684590  0.76463088  0.06118961     0.16600
H642        H  0.49247145  0.82473768  0.01415404     0.12500
H643        H  0.63111398  0.97740554  0.07108246     0.15300
H644        H  0.54040386  0.91895809  0.11677651     0.15100
C645        C  0.37715499  0.51477061  0.39723553    -0.17800
C646        C  0.37685111  0.54507414  0.40929791    -0.19900
C647        C  0.36896253  0.53623086  0.42844849     0.20700
C648        C  0.36372172  0.49749076  0.43569410    -0.02900
C649        C  0.36330893  0.46664587  0.42347781    -0.05900
C650        C  0.36919243  0.47502709  0.40411735     0.21000
C651        C  0.35461719  0.42661194  0.43053556     0.19200
C652        C  0.34926686  0.41872559  0.44981454    -0.17400
C653        C  0.35034459  0.44953553  0.46196046    -0.19600
C654        C  0.35621491  0.48850105  0.45499378     0.20600
C655        C  0.35169405  0.51730876  0.46674539    -0.32600
C656        C  0.35287042  0.55392908  0.45923572     0.01300
C657        C  0.36330592  0.56411313  0.44027433    -0.24000
C658        C  0.36546056  0.44303110  0.39193893    -0.28500
C659        C  0.35502244  0.40246959  0.39880640     0.07000
C660        C  0.34969914  0.39461499  0.41815322    -0.27200
H661        H  0.38213033  0.52187419  0.38244194     0.11700
H662        H  0.38140212  0.57489670  0.40356430     0.12900
H663        H  0.34315311  0.38830032  0.45545980     0.11900
H664        H  0.34485293  0.44221292  0.47672513     0.11200
H665        H  0.34356417  0.50950213  0.48137126     0.16600
H666        H  0.36465409  0.59269639  0.43456352     0.12500
H667        H  0.36960365  0.44927869  0.37706001     0.15300
H668        H  0.34022508  0.36311867  0.42356666     0.15100
C669        C  0.13232201  0.74769461  0.45102613    -0.17800
C670        C  0.16641130  0.74534740  0.45976121    -0.19900
C671        C  0.16681070  0.70660669  0.46083433     0.20700
C672        C  0.13207821  0.66970689  0.45323906    -0.02900
C673        C  0.09796008  0.67218997  0.44419776    -0.05900
C674        C  0.09825055  0.71142432  0.44304609     0.21000
C675        C  0.06433634  0.63574635  0.43581966     0.19200
C676        C  0.06426767  0.59679965  0.43720672    -0.17400
C677        C  0.09762414  0.59415271  0.44646919    -0.19600
C678        C  0.13191076  0.63053187  0.45429263     0.20600
C679        C  0.16642234  0.62854667  0.46284181    -0.32600
C680        C  0.20173655  0.66534139  0.47010786     0.01300
C681        C  0.20157082  0.70425581  0.46912307    -0.24000
C682        C  0.06550407  0.71415105  0.43324980    -0.28500
C683        C  0.03351205  0.67873006  0.42375710     0.07000
C684        C  0.03254959  0.63932281  0.42551176    -0.27200
H685        H  0.13306877  0.77812040  0.45017687     0.11700
H686        H  0.19267606  0.77394366  0.46553642     0.12900
H687        H  0.03870367  0.56848686  0.43092258     0.11900
H688        H  0.09702623  0.56377945  0.44721190     0.11200
H689        H  0.16613958  0.59829280  0.46345802     0.16600
H690        H  0.22841868  0.73262830  0.47476893     0.12500
H691        H  0.06628884  0.74458095  0.43209594     0.15300
H692        H  0.00858136  0.61205169  0.41802664     0.15100
C693        C  0.45084101  0.82247078  0.42650537    -0.17800
C694        C  0.48419187  0.85099818  0.41451866    -0.19900
C695        C  0.52462452  0.88093676  0.42157712     0.20700
C696        C  0.53089353  0.88308938  0.44098513    -0.02900
C697        C  0.49721641  0.85433126  0.45308215    -0.05900
C698        C  0.45718528  0.82330063  0.44580876     0.21000
C699        C  0.50422205  0.85574104  0.47239719     0.19200
C700        C  0.54401546  0.88661772  0.47956428    -0.17400
C701        C  0.57732127  0.91487732  0.46761249    -0.19600
C702        C  0.57136835  0.91290655  0.44828796     0.20600
C703        C  0.60574748  0.93909131  0.43615369    -0.32600
C704        C  0.60045830  0.93628346  0.41671945     0.01300
C705        C  0.55932761  0.90769383  0.40957776    -0.24000
C706        C  0.42497348  0.79282661  0.45787232    -0.28500
C707        C  0.43271470  0.79278616  0.47707329     0.07000
C708        C  0.47201689  0.82532803  0.48418492    -0.27200
H709        H  0.42036022  0.79914399  0.42061933     0.11700
H710        H  0.47865268  0.84900487  0.39965922     0.12900
H711        H  0.54977622  0.88825198  0.49440430     0.11900
H712        H  0.60807675  0.93773306  0.47346705     0.11200
H713        H  0.63734097  0.96019349  0.44184446     0.16600
H714        H  0.55471651  0.90544316  0.39464532     0.12500
H715        H  0.39484917  0.76819475  0.45223336     0.15300
H716        H  0.47820178  0.82635566  0.49898224     0.15100
C717        C  0.08735501  0.50767551  0.94572002    -0.17800
C718        C  0.05756541  0.47435274  0.93478755    -0.19900
C719        C  0.06185532  0.43796422  0.93201897     0.20700
C720        C  0.09562344  0.43453218  0.94089662    -0.02900
C721        C  0.12596845  0.46833397  0.95174059    -0.05900
C722        C  0.12214271  0.50530091  0.95392726     0.21000
C723        C  0.16098086  0.46570421  0.95983500     0.19200
C724        C  0.16463265  0.42889192  0.95744846    -0.17400
C725        C  0.13433346  0.39524479  0.94686938    -0.19600
C726        C  0.10007005  0.39799628  0.93839079     0.20600
C727        C  0.07120477  0.36550208  0.92687998    -0.32600
C728        C  0.03915039  0.36972771  0.91701147     0.01300
C729        C  0.03421612  0.40583019  0.91992131    -0.24000
C730        C  0.15410046  0.53985032  0.96365556    -0.28500
C731        C  0.19019631  0.53818892  0.97106110     0.07000
C732        C  0.19264155  0.50048880  0.96956763    -0.27200
H733        H  0.08382367  0.53578022  0.94736147     0.11700
H734        H  0.03165152  0.47738971  0.92821209     0.12900
H735        H  0.19133378  0.42638879  0.96352294     0.11900
H736        H  0.13825597  0.36742144  0.94498026     0.11200
H737        H  0.07489083  0.33753697  0.92493230     0.16600
H738        H  0.01026322  0.40988407  0.91215838     0.12500
H739        H  0.15159022  0.56861087  0.96490726     0.15300
H740        H  0.22023933  0.49888772  0.97520729     0.15100
C741        C  0.34589023  0.91711234  0.94830080    -0.17800
C742        C  0.34452813  0.88621419  0.96051669    -0.19900
C743        C  0.35875769  0.85788592  0.95458403     0.20700
C744        C  0.37662093  0.86199752  0.93648500    -0.02900
C745        C  0.37760840  0.89296159  0.92408621    -0.05900
C746        C  0.36130619  0.91996418  0.92996629     0.21000
C747        C  0.39281896  0.89547104  0.90558018     0.19200
C748        C  0.40877325  0.86822373  0.89993657    -0.17400
C749        C  0.40813889  0.83768930  0.91229969    -0.19600
C750        C  0.39124279  0.83369338  0.93046443     0.20600
C751        C  0.38622429  0.80041249  0.94234342    -0.32600
C752        C  0.36540378  0.79453596  0.95976611     0.01300
C753        C  0.35302884  0.82399420  0.96604317    -0.24000
C754        C  0.35895308  0.94816837  0.91723080    -0.28500
C755        C  0.37305869  0.95030649  0.89868721     0.07000
C756        C  0.39038409  0.92417795  0.89294690    -0.27200
H757        H  0.33366870  0.93796048  0.95302449     0.11700
H758        H  0.33113050  0.88365010  0.97442878     0.12900
H759        H  0.42082476  0.86987168  0.88582992     0.11900
H760        H  0.41960278  0.81632115  0.90746584     0.11200
H761        H  0.39539325  0.77729242  0.93752196     0.16600
H762        H  0.33703968  0.81926363  0.97953866     0.12500
H763        H  0.34437938  0.96730777  0.92156570     0.15300
H764        H  0.40103366  0.92563881  0.87859988     0.15100
C765        C  0.60373352  0.71103486  0.54887791    -0.17800
C766        C  0.57144822  0.70718326  0.53677576    -0.19900
C767        C  0.52829960  0.67545609  0.53978300     0.20700
C768        C  0.51755808  0.64617157  0.55466158    -0.02900
C769        C  0.55029016  0.64983982  0.56681305    -0.05900
C770        C  0.59333532  0.68300502  0.56404399     0.21000
C771        C  0.53975120  0.62151580  0.58210235     0.19200
C772        C  0.49656218  0.58919283  0.58480190    -0.17400
C773        C  0.46390764  0.58581734  0.57280868    -0.19600
C774        C  0.47393718  0.61455819  0.55785880     0.20600
C775        C  0.44107538  0.61390507  0.54666158    -0.32600
C776        C  0.45173569  0.64491200  0.53261895     0.01300
C777        C  0.49545523  0.67419870  0.52876347    -0.24000
C778        C  0.62511208  0.68852523  0.57679402    -0.28500
C779        C  0.61487340  0.66106473  0.59212667     0.07000
C780        C  0.57243357  0.62707761  0.59466148    -0.27200
H781        H  0.63670585  0.73647105  0.54658804     0.11700
H782        H  0.58001485  0.72981528  0.52537369     0.12900
H783        H  0.48786619  0.56712467  0.59643230     0.11900
H784        H  0.43066948  0.56131514  0.57546917     0.11200
H785        H  0.40727710  0.59136617  0.54967420     0.16600
H786        H  0.50376056  0.69781435  0.51777819     0.12500
H787        H  0.65794865  0.71467975  0.57500920     0.15300
H788        H  0.56472362  0.60617132  0.60668301     0.15100
C789        C  0.60788351  0.68984053  0.97353101    -0.17800
C790        C  0.57354884  0.68655946  0.98478382    -0.19900
C791        C  0.53547369  0.68237628  0.97677189     0.20700
C792        C  0.53143407  0.68019765  0.95724842    -0.02900
C793        C  0.56590479  0.68297058  0.94589313    -0.05900
C794        C  0.60469051  0.68868311  0.95404663     0.21000
C795        C  0.56200570  0.68129127  0.92636539     0.19200
C796        C  0.52349924  0.67593439  0.91836398    -0.17400
C797        C  0.48960493  0.67364973  0.92958375    -0.19600
C798        C  0.49341889  0.67629701  0.94903196     0.20600
C799        C  0.46023582  0.67579972  0.96035866    -0.32600
C800        C  0.46421669  0.67856383  0.97986775     0.01300
C801        C  0.50178607  0.68116684  0.98792500    -0.24000
C802        C  0.64005444  0.69470947  0.94256827    -0.28500
C803        C  0.63693548  0.69471626  0.92302586     0.07000
C804        C  0.59718858  0.68652719  0.91513145    -0.27200
H805        H  0.63721977  0.69393312  0.98007295     0.11700
H806        H  0.57711326  0.68808503  0.99977186     0.12900
H807        H  0.51995764  0.67444678  0.90337437     0.11900
H808        H  0.46059410  0.67034562  0.92301952     0.11200
H809        H  0.43137574  0.67335988  0.95397794     0.16600
H810        H  0.50536909  0.68331450  0.00291545     0.12500
H811        H  0.67050430  0.70117076  0.94880671     0.15300
H812        H  0.59420319  0.68574227  0.90010819     0.15100
C813        C  0.40823366  0.91967305  0.57317232    -0.17800
C814        C  0.40743674  0.88445463  0.56479742    -0.19900
C815        C  0.37080589  0.85549953  0.55499386     0.20700
C816        C  0.33495259  0.86232333  0.55314034    -0.02900
C817        C  0.33568205  0.89791617  0.56169320    -0.05900
C818        C  0.37233500  0.92632305  0.57193636     0.21000
C819        C  0.29929845  0.90425067  0.56057115     0.19200
C820        C  0.26314134  0.87570932  0.55030560    -0.17400
C821        C  0.26267462  0.84061493  0.54158764    -0.19600
C822        C  0.29822190  0.83322570  0.54309378     0.20600
C823        C  0.29779786  0.79731130  0.53491909    -0.32600
C824        C  0.33347762  0.79013979  0.53706591     0.01300
C825        C  0.36966862  0.81972476  0.54712993    -0.24000
C826        C  0.37171912  0.95963996  0.58160573    -0.28500
C827        C  0.33478756  0.96482522  0.58146235     0.07000
C828        C  0.29911280  0.93784824  0.57044576    -0.27200
H829        H  0.43657314  0.94121910  0.58095450     0.11700
H830        H  0.43532020  0.87956793  0.56618540     0.12900
H831        H  0.23492870  0.88015633  0.54925753     0.11900
H832        H  0.23423320  0.81890215  0.53391191     0.11200
H833        H  0.26992497  0.77507925  0.52707655     0.16600
H834        H  0.39790690  0.81547373  0.54871203     0.12500
H835        H  0.39884424  0.97973805  0.59034384     0.15300
H836        H  0.27048450  0.94179860  0.57034674     0.15100
C837        C  0.09474705  0.39282379  0.53114225    -0.17800
C838        C  0.12761365  0.42243432  0.51932167    -0.19900
C839        C  0.16034112  0.46107567  0.52628868     0.20700
C840        C  0.15956095  0.47020885  0.54532654    -0.02900
C841        C  0.12599307  0.44052197  0.55722094    -0.05900
C842        C  0.09375067  0.40134486  0.55015609     0.21000
C843        C  0.12524666  0.44970279  0.57624508     0.19200
C844        C  0.15756389  0.48861270  0.58317009    -0.17400
C845        C  0.19092485  0.51781954  0.57144094    -0.19600
C846        C  0.19245554  0.50884383  0.55251894     0.20600
C847        C  0.22598582  0.53797604  0.54064814    -0.32600
C848        C  0.22655203  0.52953992  0.52153325     0.01300
C849        C  0.19358009  0.49082966  0.51452654    -0.24000
C850        C  0.06211130  0.37084637  0.56232936    -0.28500
C851        C  0.06216711  0.37913714  0.58148462     0.07000
C852        C  0.09314109  0.41926006  0.58814757    -0.27200
H853        H  0.07028063  0.36304631  0.52542574     0.11700
H854        H  0.12761663  0.41493480  0.50472199     0.12900
H855        H  0.15742215  0.49620496  0.59775100     0.11900
H856        H  0.21565017  0.54740874  0.57720027     0.11200
H857        H  0.25083179  0.56784414  0.54616511     0.16600
H858        H  0.19366826  0.48393078  0.49984665     0.12500
H859        H  0.03880418  0.33998112  0.55707433     0.15300
H860        H  0.09328985  0.42605398  0.60285565     0.15100
C861        C  0.86582145  0.84236900  0.84661931    -0.17800
C862        C  0.89318684  0.85342849  0.83092187    -0.19900
C863        C  0.89692097  0.82204302  0.82077561     0.20700
C864        C  0.87297227  0.77910167  0.82650801    -0.02900
C865        C  0.84474975  0.76784839  0.84218585    -0.05900
C866        C  0.84133021  0.79969206  0.85229429     0.21000
C867        C  0.81939048  0.72473036  0.84752394     0.19200
C868        C  0.82364271  0.69344889  0.83751398    -0.17400
C869        C  0.85228510  0.70469653  0.82219542    -0.19600
C870        C  0.87679714  0.74737447  0.81645476     0.20600
C871        C  0.90475249  0.75885223  0.80077908    -0.32600
C872        C  0.92832101  0.80158256  0.79484649     0.01300
C873        C  0.92407724  0.83290252  0.80496147    -0.24000
C874        C  0.81233483  0.78821613  0.86749221    -0.28500
C875        C  0.78443638  0.74515389  0.87199237     0.07000
C876        C  0.78916418  0.71360935  0.86232969    -0.27200
H877        H  0.86324324  0.86713394  0.85413890     0.11700
H878        H  0.91137452  0.88656013  0.82668726     0.12900
H879        H  0.80453354  0.66020156  0.84144132     0.11900
H880        H  0.85482247  0.67991356  0.81467799     0.11200
H881        H  0.90769747  0.73450193  0.79307072     0.16600
H882        H  0.94227154  0.86599022  0.80063168     0.12500
H883        H  0.80956699  0.81269131  0.87517974     0.15300
H884        H  0.76791846  0.68036236  0.86576648     0.15100
C885        C  0.17967897  0.86807262  0.84061626    -0.17800
C886        C  0.14371222  0.85376586  0.82902671    -0.19900
C887        C  0.14573920  0.87661307  0.81281103     0.20700
C888        C  0.18457133  0.91397826  0.80808105    -0.02900
C889        C  0.22142086  0.92745232  0.81939733    -0.05900
C890        C  0.21864830  0.90487151  0.83594668     0.21000
C891        C  0.26072988  0.96391680  0.81434625     0.19200
C892        C  0.26251215  0.98730864  0.79833684    -0.17400
C893        C  0.22560685  0.97470219  0.78743099    -0.19600
C894        C  0.18652649  0.93794558  0.79210651     0.20600
C895        C  0.14953541  0.92438155  0.78100808    -0.32600
C896        C  0.11133504  0.88633460  0.78532111     0.01300
C897        C  0.10969784  0.86262806  0.80119936    -0.24000
C898        C  0.25415030  0.92059137  0.84796936    -0.28500
C899        C  0.29277387  0.95807077  0.84346177     0.07000
C900        C  0.29684062  0.97760755  0.82593212    -0.27200
H901        H  0.17697447  0.85038550  0.85327009     0.11700
H902        H  0.11408481  0.82510009  0.83288170     0.12900
H903        H  0.29221783  0.01588946  0.79446884     0.11900
H904        H  0.22771367  0.99357295  0.77526807     0.11200
H905        H  0.15094027  0.94240119  0.76863149     0.16600
H906        H  0.08016677  0.83334093  0.80453571     0.12500
H907        H  0.25074640  0.90520408  0.86137038     0.15300
H908        H  0.32685542  0.00601341  0.82219373     0.15100
C909        C  0.14586235  0.97908950  0.67700095    -0.17800
C910        C  0.17664544  0.99684207  0.66257789    -0.19900
C911        C  0.19736242  0.97490484  0.65551533     0.20700
C912        C  0.18684834  0.93459073  0.66297702    -0.02900
C913        C  0.15528983  0.91638034  0.67734520    -0.05900
C914        C  0.13504500  0.93896217  0.68444839     0.21000
C915        C  0.14458377  0.87599720  0.68481292     0.19200
C916        C  0.16534011  0.85409365  0.67768195    -0.17400
C917        C  0.19720284  0.87248598  0.66363771    -0.19600
C918        C  0.20847779  0.91287005  0.65635177     0.20600
C919        C  0.24194181  0.93253545  0.64300613    -0.32600
C920        C  0.25344235  0.97325854  0.63595425     0.01300
C921        C  0.22943543  0.99320806  0.64155132    -0.24000
C922        C  0.10475400  0.92137684  0.69906773    -0.28500
C923        C  0.09418518  0.88141426  0.70682201     0.07000
C924        C  0.11389726  0.85863359  0.69946856    -0.27200
H925        H  0.13066463  0.99685712  0.68240415     0.11700
H926        H  0.18479438  0.02804415  0.65716414     0.12900
H927        H  0.15744981  0.82303309  0.68318074     0.11900
H928        H  0.21336548  0.85530840  0.65861003     0.11200
H929        H  0.26012848  0.91686420  0.63858233     0.16600
H930        H  0.23753059  0.02413016  0.63578771     0.12500
H931        H  0.08969771  0.93923953  0.70452595     0.15300
H932        H  0.10594626  0.82783375  0.70532265     0.15100
C933        C  0.76264241  0.73942621  0.69656956    -0.17800
C934        C  0.79580962  0.75781307  0.70957855    -0.19900
C935        C  0.83786756  0.76525414  0.70514595     0.20700
C936        C  0.84649131  0.75365311  0.68744968    -0.02900
C937        C  0.81316627  0.73576401  0.67419836    -0.05900
C938        C  0.77108923  0.72861523  0.67883609     0.21000
C939        C  0.82210314  0.72567628  0.65624716     0.19200
C940        C  0.86396464  0.73232398  0.65193539    -0.17400
C941        C  0.89679037  0.74922802  0.66520645    -0.19600
C942        C  0.88847542  0.76028822  0.68294219     0.20600
C943        C  0.92134082  0.77796433  0.69624876    -0.32600
C944        C  0.91304165  0.79021659  0.71373974     0.01300
C945        C  0.87143172  0.78407751  0.71808515    -0.24000
C946        C  0.73848754  0.71201280  0.66548816    -0.28500
C947        C  0.74787737  0.70480142  0.64719515     0.07000
C948        C  0.78939385  0.71041056  0.64280018    -0.27200
H949        H  0.73051325  0.73431488  0.70027414     0.11700
H950        H  0.78858237  0.76632771  0.72310593     0.12900
H951        H  0.87140096  0.72469221  0.63825568     0.11900
H952        H  0.92884729  0.75412091  0.66152162     0.11200
H953        H  0.95357391  0.78275154  0.69296229     0.16600
H954        H  0.86505282  0.79310445  0.73167528     0.12500
H955        H  0.70619019  0.70669215  0.66903020     0.15300
H956        H  0.79665011  0.70455487  0.62874569     0.15100
C957        C  0.16082308  0.32543118  0.81651713    -0.17800
C958        C  0.14135148  0.33726219  0.83074736    -0.19900
C959        C  0.10607624  0.30620097  0.84116585     0.20700
C960        C  0.09120849  0.26278203  0.83760900    -0.02900
C961        C  0.11029780  0.25088590  0.82304008    -0.05900
C962        C  0.14500464  0.28234715  0.81230401     0.21000
C963        C  0.09376132  0.20750186  0.81889224     0.19200
C964        C  0.05966308  0.17639248  0.82976024    -0.17400
C965        C  0.04117200  0.18814035  0.84433562    -0.19600
C966        C  0.05621324  0.23119359  0.84816864     0.20600
C967        C  0.03544654  0.24315270  0.86175685    -0.32600
C968        C  0.04757003  0.28619538  0.86421865     0.01300
C969        C  0.08409770  0.31766653  0.85446392    -0.24000
C970        C  0.16247926  0.27012752  0.79730537    -0.28500
C971        C  0.14487297  0.22691142  0.79267477     0.07000
C972        C  0.11093851  0.19588829  0.80372415    -0.27200
H973        H  0.18758534  0.35002915  0.80851186     0.11700
H974        H  0.15337865  0.37074591  0.83337572     0.12900
H975        H  0.04682154  0.14293455  0.82680027     0.11900
H976        H  0.01430222  0.16354688  0.85229324     0.11200
H977        H  0.00785108  0.21894185  0.86954060     0.16600
H978        H  0.09382574  0.35093690  0.85649755     0.12500
H979        H  0.18889565  0.29423106  0.78895576     0.15300
H980        H  0.09776784  0.16248746  0.80051115     0.15100
C981        C  0.19791389  0.04842257  0.82242448    -0.17800
C982        C  0.21387533  0.03125920  0.83571370    -0.19900
C983        C  0.25866329  0.05013088  0.83881409     0.20700
C984        C  0.28769676  0.08670582  0.82849143    -0.02900
C985        C  0.27153621  0.10444887  0.81533279    -0.05900
C986        C  0.22646117  0.08504492  0.81222509     0.21000
C987        C  0.30052412  0.14128271  0.80513955     0.19200
C988        C  0.34536450  0.15975728  0.80807130    -0.17400
C989        C  0.36146260  0.14164462  0.82084496    -0.19600
C990        C  0.33294114  0.10505810  0.83103542     0.20600
C991        C  0.34891479  0.08550887  0.84315926    -0.32600
C992        C  0.32018184  0.04807888  0.85279644     0.01300
C993        C  0.27510492  0.03198830  0.85143782    -0.24000
C994        C  0.21073004  0.10254041  0.79893840    -0.28500
C995        C  0.23935300  0.13957773  0.78889401     0.07000
C996        C  0.28420477  0.15882716  0.79210625    -0.27200
H997        H  0.16323096  0.03304665  0.82011839     0.11700
H998        H  0.19127003  0.00279500  0.84333020     0.12900
H999        H  0.36803629  0.18796234  0.80032639     0.11900
H1000       H  0.39626272  0.15606435  0.82264625     0.11200
H1001       H  0.38367903  0.09809376  0.84441293     0.16600
H1002       H  0.25301933  0.00347379  0.85917875     0.12500
H1003       H  0.17607559  0.08748753  0.79654697     0.15300
H1004       H  0.30647128  0.18707596  0.78426374     0.15100
C1005       C  0.28152912  0.03691928  0.69218385    -0.17800
C1006       C  0.26249559  0.05196319  0.70520538    -0.19900
C1007       C  0.26237987  0.09041805  0.70199189     0.20700
C1008       C  0.28267748  0.11455388  0.68574931    -0.02900
C1009       C  0.30071894  0.09876850  0.67237883    -0.05900
C1010       C  0.29986533  0.05963595  0.67556554     0.21000
C1011       C  0.31775970  0.12117592  0.65545177     0.19200
C1012       C  0.31969270  0.16068457  0.65265300    -0.17400
C1013       C  0.30318517  0.17708148  0.66619901    -0.19600
C1014       C  0.28371206  0.15380752  0.68257332     0.20600
C1015       C  0.26458298  0.16869442  0.69567527    -0.32600
C1016       C  0.24304532  0.14405041  0.71148601     0.01300
C1017       C  0.24195132  0.10499293  0.71460336    -0.24000
C1018       C  0.31442703  0.04244393  0.66151002    -0.28500
C1019       C  0.32547649  0.06170443  0.64372692     0.07000
C1020       C  0.32970435  0.10231008  0.64115410    -0.27200
H1021       H  0.28037225  0.00668717  0.69477312     0.11700
H1022       H  0.24736899  0.03324979  0.71767717     0.12900
H1023       H  0.33306828  0.17845165  0.63980231     0.11900
H1024       H  0.30446154  0.20736785  0.66361601     0.11200
H1025       H  0.26547102  0.19893166  0.69339311     0.16600
H1026       H  0.22596912  0.08647441  0.72703702     0.12500
H1027       H  0.31272557  0.01183980  0.66372929     0.15300
H1028       H  0.33910329  0.11775807  0.62759612     0.15100
C1029       C  0.14120598  0.26555334  0.64530494    -0.17800
C1030       C  0.15868500  0.25218712  0.65958792    -0.19900
C1031       C  0.14346856  0.24880793  0.67802084     0.20700
C1032       C  0.11016448  0.25883987  0.68209630    -0.02900
C1033       C  0.09319054  0.27316755  0.66775268    -0.05900
C1034       C  0.10861669  0.27631544  0.64924301     0.21000
C1035       C  0.06056586  0.28402741  0.67192564     0.19200
C1036       C  0.04443926  0.27952048  0.69024235    -0.17400
C1037       C  0.06066604  0.26457001  0.70438769    -0.19600
C1038       C  0.09369362  0.25441956  0.70049608     0.20600
C1039       C  0.11057518  0.23996652  0.71466347    -0.32600
C1040       C  0.14440308  0.23102767  0.71073162     0.01300
C1041       C  0.16079630  0.23546599  0.69245371    -0.24000
C1042       C  0.09040119  0.28913228  0.63496689    -0.28500
C1043       C  0.05730933  0.29919618  0.63902633     0.07000
C1044       C  0.04384106  0.29818148  0.65763376    -0.27200
H1045       H  0.15324782  0.26754822  0.63117095     0.11700
H1046       H  0.18398436  0.24429168  0.65620000     0.12900
H1047       H  0.01897063  0.28720330  0.69359774     0.11900
H1048       H  0.04754472  0.26117258  0.71840486     0.11200
H1049       H  0.09785484  0.23613024  0.72879111     0.16600
H1050       H  0.18650253  0.22784792  0.68947263     0.12500
H1051       H  0.10070751  0.28972764  0.62062514     0.15300
H1052       H  0.01875964  0.30652183  0.66081989     0.15100
C1053       C  0.97802390  0.23343320  0.80862710    -0.17800
C1054       C  0.96227617  0.20141495  0.79529251    -0.19900
C1055       C  0.92282263  0.16394647  0.79837481     0.20700
C1056       C  0.89905146  0.15852236  0.81509936    -0.02900
C1057       C  0.91583464  0.19013003  0.82885824    -0.05900
C1058       C  0.95513032  0.22797439  0.82545164     0.21000
C1059       C  0.89360177  0.18367751  0.84607353     0.19200
C1060       C  0.85366374  0.14653765  0.84900545    -0.17400
C1061       C  0.83612438  0.11588937  0.83506186    -0.19600
C1062       C  0.85880453  0.12135579  0.81815598     0.20600
C1063       C  0.84234349  0.09019042  0.80433061    -0.32600
C1064       C  0.86660277  0.09506680  0.78794255     0.01300
C1065       C  0.90681032  0.13174044  0.78506665    -0.24000
C1066       C  0.97153823  0.25926372  0.83912626    -0.28500
C1067       C  0.95208412  0.25143545  0.85698367     0.07000
C1068       C  0.91235518  0.21394058  0.86018558    -0.27200
H1069       H  0.00859283  0.26210960  0.80595121     0.11700
H1070       H  0.98086876  0.20603234  0.78253056     0.12900
H1071       H  0.83601726  0.14116709  0.86209337     0.11900
H1072       H  0.80520836  0.08754273  0.83763456     0.11200
H1073       H  0.81136266  0.06160945  0.80650499     0.16600
H1074       H  0.92517125  0.13544624  0.77230058     0.12500
H1075       H  0.00091036  0.28891310  0.83618577     0.15300
H1076       H  0.89668448  0.20776271  0.87379652     0.15100
C1077       C  0.74725219  0.88901412  0.85770994    -0.17800
C1078       C  0.75818664  0.91706170  0.84249407    -0.19900
C1079       C  0.76101773  0.90365828  0.82442618     0.20700
C1080       C  0.75231818  0.86142244  0.82165012    -0.02900
C1081       C  0.74063059  0.83297624  0.83694768    -0.05900
C1082       C  0.73855407  0.84695431  0.85510652     0.21000
C1083       C  0.73175661  0.79074578  0.83408573     0.19200
C1084       C  0.73474041  0.77731957  0.81608043    -0.17400
C1085       C  0.74693008  0.80563836  0.80098173    -0.19600
C1086       C  0.75590617  0.84773141  0.80361348     0.20600
C1087       C  0.76884727  0.87647522  0.78855521    -0.32600
C1088       C  0.77716511  0.91832411  0.79121815     0.01300
C1089       C  0.77292139  0.93177106  0.80910361    -0.24000
C1090       C  0.72909346  0.81896677  0.87033790    -0.28500
C1091       C  0.72171558  0.77733909  0.86753520     0.07000
C1092       C  0.72136745  0.76299602  0.84933701    -0.27200
H1093       H  0.74586170  0.90030815  0.87153590     0.11700
H1094       H  0.76488834  0.94939639  0.84488585     0.12900
H1095       H  0.72826581  0.74504495  0.81371335     0.11900
H1096       H  0.74949062  0.79464520  0.78723692     0.11200
H1097       H  0.77241925  0.86638340  0.77473565     0.16600
H1098       H  0.77999058  0.96436747  0.81111352     0.12500
H1099       H  0.72926189  0.82996605  0.88439014     0.15300
H1100       H  0.71516671  0.73070803  0.84719889     0.15100
C1101       C  0.96479653  0.14807946  0.65340650    -0.17800
C1102       C  0.94665900  0.11810120  0.66786415    -0.19900
C1103       C  0.91735087  0.12013379  0.68069697     0.20700
C1104       C  0.90616525  0.15269396  0.67897820    -0.02900
C1105       C  0.92460692  0.18308525  0.66439127    -0.05900
C1106       C  0.95394619  0.18060675  0.65153393     0.21000
C1107       C  0.91393568  0.21605115  0.66275098     0.19200
C1108       C  0.88510253  0.21838033  0.67578270    -0.17400
C1109       C  0.86657414  0.18806265  0.69016430    -0.19600
C1110       C  0.87669019  0.15495028  0.69184715     0.20600
C1111       C  0.85809556  0.12419902  0.70618552    -0.32600
C1112       C  0.86947741  0.09191030  0.70802797     0.01300
C1113       C  0.89920478  0.09024016  0.69525028    -0.24000
C1114       C  0.97253211  0.21110806  0.63722451    -0.28500
C1115       C  0.96279228  0.24452422  0.63572521     0.07000
C1116       C  0.93291080  0.24646083  0.64832382    -0.27200
H1117       H  0.98746042  0.14590866  0.64371564     0.11700
H1118       H  0.95560027  0.09330882  0.66901951     0.12900
H1119       H  0.87682672  0.24366048  0.67484323     0.11900
H1120       H  0.84433033  0.19054689  0.69999144     0.11200
H1121       H  0.83553691  0.12586792  0.71611502     0.16600
H1122       H  0.90793754  0.06529824  0.69654693     0.12500
H1123       H  0.99578296  0.20981968  0.62756729     0.15300
H1124       H  0.92585517  0.27256320  0.64729824     0.15100
C1125       C  0.66063377  0.80044759  0.67596733    -0.17800
C1126       C  0.67462344  0.83142231  0.68978414    -0.19900
C1127       C  0.71908183  0.85958985  0.69201184     0.20700
C1128       C  0.74968619  0.85749676  0.67978234    -0.02900
C1129       C  0.73553134  0.82663133  0.66568179    -0.05900
C1130       C  0.69085247  0.79735435  0.66406581     0.21000
C1131       C  0.76619669  0.82406579  0.65366815     0.19200
C1132       C  0.81054569  0.85309871  0.65548896    -0.17400
C1133       C  0.82460286  0.88348163  0.66956217    -0.19600
C1134       C  0.79450112  0.88543297  0.68196617     0.20600
C1135       C  0.80844609  0.91433208  0.69669651    -0.32600
C1136       C  0.77816578  0.91619039  0.70909144     0.01300
C1137       C  0.73351062  0.88925823  0.70646092    -0.24000
C1138       C  0.67742004  0.76422727  0.65123454    -0.28500
C1139       C  0.70814829  0.75992061  0.64014104     0.07000
C1140       C  0.75215596  0.79120549  0.64069083    -0.27200
H1141       H  0.62621881  0.77834563  0.67483731     0.11700
H1142       H  0.65070892  0.83275176  0.69899297     0.12900
H1143       H  0.83445929  0.85157709  0.64634450     0.11900
H1144       H  0.85909375  0.90498523  0.67094651     0.11200
H1145       H  0.84289822  0.93560997  0.69845182     0.16600
H1146       H  0.71005435  0.89072899  0.71592646     0.12500
H1147       H  0.64344303  0.74024406  0.65070238     0.15300
H1148       H  0.77572368  0.78823286  0.63185593     0.15100
C1149       C  0.82889563  0.24804358  0.54260270    -0.17800
C1150       C  0.86234675  0.24707410  0.55257785    -0.19900
C1151       C  0.89737842  0.28486899  0.55903164     0.20700
C1152       C  0.89963110  0.32414638  0.55482390    -0.02900
C1153       C  0.86627383  0.32516784  0.54445726    -0.05900
C1154       C  0.83015677  0.28686697  0.53868500     0.21000
C1155       C  0.86835041  0.36443600  0.54046206     0.19200
C1156       C  0.90393599  0.40232847  0.54646961    -0.17400
C1157       C  0.93643573  0.40123306  0.55707992    -0.19600
C1158       C  0.93427441  0.36227562  0.56159918     0.20600
C1159       C  0.96494590  0.36062677  0.57345870    -0.32600
C1160       C  0.96201327  0.32137711  0.57828703     0.01300
C1161       C  0.92909581  0.28388327  0.57032491    -0.24000
C1162       C  0.79542542  0.28803241  0.52965341    -0.28500
C1163       C  0.79674022  0.32712227  0.52617875     0.07000
C1164       C  0.83406993  0.36515812  0.53114451    -0.27200
H1165       H  0.80168015  0.21835224  0.53821869     0.11700
H1166       H  0.86018826  0.21661017  0.55570106     0.12900
H1167       H  0.90600315  0.43278886  0.54341544     0.11900
H1168       H  0.96286601  0.43082133  0.56202791     0.11200
H1169       H  0.98961741  0.38960053  0.57967613     0.16600
H1170       H  0.92684950  0.25349887  0.57376957     0.12500
H1171       H  0.76711853  0.25864811  0.52575310     0.15300
H1172       H  0.83587885  0.39565742  0.52845464     0.15100
C1173       C  0.71671623  0.14351090  0.46500425    -0.17800
C1174       C  0.71710787  0.10839296  0.45692358    -0.19900
C1175       C  0.68883371  0.08654297  0.44239925     0.20700
C1176       C  0.65979084  0.10010196  0.43594572    -0.02900
C1177       C  0.65980438  0.13581494  0.44392915    -0.05900
C1178       C  0.68829739  0.15752966  0.45858148     0.21000
C1179       C  0.63134418  0.14978115  0.43723186     0.19200
C1180       C  0.60332932  0.12821654  0.42258351    -0.17400
C1181       C  0.60327463  0.09277854  0.41467691    -0.19600
C1182       C  0.63126798  0.07844560  0.42128910     0.20600
C1183       C  0.63234526  0.04377347  0.41306737    -0.32600
C1184       C  0.66228380  0.03127660  0.41898469     0.01300
C1185       C  0.69007645  0.05229768  0.43376880    -0.24000
C1186       C  0.68748646  0.19251900  0.46670956    -0.28500
C1187       C  0.65845003  0.20596659  0.46039804     0.07000
C1188       C  0.63095673  0.18474454  0.44545163    -0.27200
H1189       H  0.73875757  0.15980497  0.47624168     0.11700
H1190       H  0.73964991  0.09841252  0.46198835     0.12900
H1191       H  0.58137984  0.13870422  0.41727130     0.11900
H1192       H  0.58150747  0.07671552  0.40332615     0.11200
H1193       H  0.61184995  0.02811798  0.40129143     0.16600
H1194       H  0.71375595  0.04297350  0.43797870     0.12500
H1195       H  0.70859207  0.20848454  0.47826865     0.15300
H1196       H  0.60853155  0.19490317  0.44038475     0.15100
C1197       C  0.55171701  0.16792065  0.57373026    -0.17800
C1198       C  0.51906618  0.13937990  0.58594618    -0.19900
C1199       C  0.47731382  0.11155414  0.57941044     0.20700
C1200       C  0.46879205  0.11141341  0.56028261    -0.02900
C1201       C  0.50182734  0.13985927  0.54794579    -0.05900
C1202       C  0.54331311  0.16897529  0.55472307     0.21000
C1203       C  0.49277468  0.14014754  0.52892905     0.19200
C1204       C  0.45150584  0.11148813  0.52224747    -0.17400
C1205       C  0.41869416  0.08378707  0.53448436    -0.19600
C1206       C  0.42680807  0.08394429  0.55355349     0.20600
C1207       C  0.39327299  0.05818264  0.56605978    -0.32600
C1208       C  0.40113980  0.05882176  0.58522520     0.01300
C1209       C  0.44358120  0.08488148  0.59172005    -0.24000
C1210       C  0.57485304  0.19961149  0.54251636    -0.28500
C1211       C  0.56494660  0.20138346  0.52371319     0.07000
C1212       C  0.52443567  0.17029485  0.51699449    -0.27200
H1213       H  0.58329741  0.18974681  0.57922495     0.11700
H1214       H  0.52619468  0.13977861  0.60060324     0.12900
H1215       H  0.44423242  0.11132831  0.50761746     0.11900
H1216       H  0.38675560  0.06274686  0.52907755     0.11200
H1217       H  0.36062580  0.03884508  0.56095646     0.16600
H1218       H  0.45003777  0.08523967  0.60645831     0.12500
H1219       H  0.60604820  0.22308629  0.54779027     0.15300
H1220       H  0.51673657  0.17051135  0.50243008     0.15100
C1221       C  0.87551456  0.56745753  0.48261933    -0.17800
C1222       C  0.90746500  0.59864558  0.47097748    -0.19900
C1223       C  0.90555373  0.59376146  0.45155534     0.20700
C1224       C  0.87149939  0.55653597  0.44388900    -0.02900
C1225       C  0.83869498  0.52548724  0.45560906    -0.05900
C1226       C  0.84066278  0.53107023  0.47505291     0.21000
C1227       C  0.80366753  0.48916552  0.44782732     0.19200
C1228       C  0.80250723  0.48361707  0.42847346    -0.17400
C1229       C  0.83532397  0.51394998  0.41691848    -0.19600
C1230       C  0.86963503  0.55070481  0.42446833     0.20600
C1231       C  0.90125661  0.58227468  0.41284361    -0.32600
C1232       C  0.93375784  0.62091147  0.42014151     0.01300
C1233       C  0.93610100  0.62596842  0.43964278    -0.24000
C1234       C  0.80769008  0.50029534  0.48656340    -0.28500
C1235       C  0.77219203  0.46415453  0.47892800     0.07000
C1236       C  0.77047380  0.45901626  0.45949196    -0.27200
H1237       H  0.87770051  0.57214055  0.49754785     0.11700
H1238       H  0.93347699  0.62678725  0.47716641     0.12900
H1239       H  0.77608029  0.45586120  0.42224658     0.11900
H1240       H  0.83341215  0.50902899  0.40200668     0.11200
H1241       H  0.89954357  0.57739694  0.39792369     0.16600
H1242       H  0.96048291  0.65557253  0.44552033     0.12500
H1243       H  0.80961554  0.50464566  0.50152051     0.15300
H1244       H  0.74379483  0.43110422  0.45346353     0.15100
C1245       C  0.53767196  0.42123550  0.43173169    -0.17800
C1246       C  0.50766281  0.42024859  0.41885669    -0.19900
C1247       C  0.46552439  0.38538733  0.41839670     0.20700
C1248       C  0.45294223  0.35189225  0.43148709    -0.02900
C1249       C  0.48296997  0.35316646  0.44459456    -0.05900
C1250       C  0.52589062  0.38756125  0.44446902     0.21000
C1251       C  0.47053633  0.31909950  0.45729322     0.19200
C1252       C  0.42812227  0.28466940  0.45718417    -0.17400
C1253       C  0.39853044  0.28318332  0.44407472    -0.19600
C1254       C  0.41088337  0.31627224  0.43101822     0.20600
C1255       C  0.38239786  0.31367674  0.41710824    -0.32600
C1256       C  0.39517812  0.34631673  0.40377743     0.01300
C1257       C  0.43624653  0.38258466  0.40468259    -0.24000
C1258       C  0.55670105  0.38656973  0.45644069    -0.28500
C1259       C  0.54486830  0.35146784  0.46836918     0.07000
C1260       C  0.50130698  0.31888196  0.46925661    -0.27200
H1261       H  0.57037897  0.44792754  0.43146560     0.11700
H1262       H  0.51776697  0.44624958  0.40894033     0.12900
H1263       H  0.41822455  0.25831071  0.46689355     0.11900
H1264       H  0.36628266  0.25577054  0.44390543     0.11200
H1265       H  0.35040603  0.28594128  0.41638840     0.16600
H1266       H  0.44581203  0.40765992  0.39430890     0.12500
H1267       H  0.59020486  0.41175133  0.45571260     0.15300
H1268       H  0.49171714  0.29192589  0.47860515     0.15100
C1269       C  0.64580558  0.50092476  0.60166875    -0.17800
C1270       C  0.64518061  0.46857924  0.59078060    -0.19900
C1271       C  0.64870813  0.47282277  0.57132710     0.20700
C1272       C  0.65188559  0.50952828  0.56266339    -0.02900
C1273       C  0.65315010  0.54246613  0.57368167    -0.05900
C1274       C  0.65039010  0.53815868  0.59327445     0.21000
C1275       C  0.65883167  0.58027743  0.56515830     0.19200
C1276       C  0.66164424  0.58416684  0.54565009    -0.17400
C1277       C  0.65978609  0.55121533  0.53468952    -0.19600
C1278       C  0.65552322  0.51402008  0.54306704     0.20600
C1279       C  0.65688501  0.48212106  0.53232009    -0.32600
C1280       C  0.65619589  0.44676973  0.54105398     0.01300
C1281       C  0.65104215  0.44182007  0.56046654    -0.24000
C1282       C  0.65375505  0.57169554  0.60419753    -0.28500
C1283       C  0.66101445  0.61001364  0.59589877     0.07000
C1284       C  0.66317299  0.61401433  0.57634052    -0.27200
H1285       H  0.64370720  0.49723146  0.61669194     0.11700
H1286       H  0.64269117  0.44053843  0.59759863     0.12900
H1287       H  0.66590599  0.61294819  0.53888063     0.11900
H1288       H  0.66272185  0.55524562  0.51968288     0.11200
H1289       H  0.66139575  0.48612834  0.51733496     0.16600
H1290       H  0.65041642  0.41444063  0.56716194     0.12500
H1291       H  0.65214522  0.56858843  0.61925580     0.15300
H1292       H  0.67005921  0.64390727  0.56985370     0.15100
C1293       C  0.39813563  0.11378428  0.94153523    -0.17800
C1294       C  0.42601002  0.14673514  0.95303597    -0.19900
C1295       C  0.46982496  0.15732026  0.95425524     0.20700
C1296       C  0.48527369  0.13304034  0.94460922    -0.02900
C1297       C  0.45727257  0.10018756  0.93274972    -0.05900
C1298       C  0.41384743  0.09136494  0.93091406     0.21000
C1299       C  0.47336207  0.07798433  0.92191095     0.19200
C1300       C  0.51657795  0.08693952  0.92405110    -0.17400
C1301       C  0.54423551  0.11914365  0.93605206    -0.19600
C1302       C  0.52925071  0.14319083  0.94597808     0.20600
C1303       C  0.55780004  0.17853856  0.95646323    -0.32600
C1304       C  0.54293045  0.20429701  0.96496885     0.01300
C1305       C  0.49889114  0.19303568  0.96420369    -0.24000
C1306       C  0.38765808  0.06233732  0.91760389    -0.28500
C1307       C  0.40452556  0.04296386  0.90563672     0.07000
C1308       C  0.44672870  0.04928272  0.90836014    -0.27200
H1309       H  0.36473739  0.10704117  0.94034560     0.11700
H1310       H  0.41361412  0.16478405  0.96053812     0.12900
H1311       H  0.52938552  0.06996169  0.91600350     0.11900
H1312       H  0.57778559  0.12627706  0.93704273     0.11200
H1313       H  0.59194792  0.18753098  0.95707096     0.16600
H1314       H  0.48762325  0.21296949  0.97090511     0.12500
H1315       H  0.35478464  0.05674143  0.91568571     0.15300
H1316       H  0.45957961  0.03401160  0.89920592     0.15100
C1317       C  0.51910378  0.32864395  0.07286877    -0.17800
C1318       C  0.48809303  0.33092431  0.08454026    -0.19900
C1319       C  0.44775345  0.32304895  0.07757810     0.20700
C1320       C  0.43875514  0.31325788  0.05861132    -0.02900
C1321       C  0.47025460  0.31131686  0.04677511    -0.05900
C1322       C  0.51057131  0.31879745  0.05394880     0.21000
C1323       C  0.46134461  0.30186241  0.02777696     0.19200
C1324       C  0.42102262  0.29394831  0.02080939    -0.17400
C1325       C  0.38965762  0.29527193  0.03257058    -0.19600
C1326       C  0.39810020  0.30486622  0.05151406     0.20600
C1327       C  0.36619592  0.30493393  0.06357605    -0.32600
C1328       C  0.37439739  0.31334990  0.08268011     0.01300
C1329       C  0.41583659  0.32355238  0.08937858    -0.24000
C1330       C  0.54178016  0.31693869  0.04202688    -0.28500
C1331       C  0.53356284  0.30885735  0.02291493     0.07000
C1332       C  0.49303200  0.30096009  0.01601113    -0.27200
H1333       H  0.54983519  0.33467287  0.07865084     0.11700
H1334       H  0.49551292  0.33843059  0.09909648     0.12900
H1335       H  0.41366573  0.28659257  0.00623700     0.11900
H1336       H  0.35869703  0.28865777  0.02684378     0.11200
H1337       H  0.33432679  0.29643728  0.05828792     0.16600
H1338       H  0.42265030  0.33034264  0.10403006     0.12500
H1339       H  0.57293699  0.32327855  0.04745315     0.15300
H1340       H  0.48620939  0.29428853  0.00134788     0.15100
C1341       C  0.85608136  0.36404182  0.90939918    -0.17800
C1342       C  0.82704979  0.36927583  0.92127843    -0.19900
C1343       C  0.82581182  0.36112371  0.94050072     0.20700
C1344       C  0.85498465  0.34838050  0.94773858    -0.02900
C1345       C  0.88422292  0.34308247  0.93577785    -0.05900
C1346       C  0.88451186  0.35056781  0.91648345     0.21000
C1347       C  0.91262821  0.32955167  0.94313088     0.19200
C1348       C  0.91220276  0.32223307  0.96233148    -0.17400
C1349       C  0.88347029  0.32760007  0.97413564    -0.19600
C1350       C  0.85453437  0.34019007  0.96693073     0.20600
C1351       C  0.82456561  0.34374069  0.97865357    -0.32600
C1352       C  0.79398824  0.35477517  0.97170419     0.01300
C1353       C  0.79547545  0.36449178  0.95256721    -0.24000
C1354       C  0.91286549  0.34397512  0.90465835    -0.28500
C1355       C  0.94100057  0.33014064  0.91191839     0.07000
C1356       C  0.94057762  0.32300217  0.93117462    -0.27200
H1357       H  0.85598649  0.37014088  0.89461606     0.11700
H1358       H  0.80520301  0.37923314  0.91538329     0.12900
H1359       H  0.93385694  0.31200053  0.96821056     0.11900
H1360       H  0.88346947  0.32131990  0.98890844     0.11200
H1361       H  0.82476101  0.33714255  0.99338898     0.16600
H1362       H  0.77244661  0.37334205  0.94703207     0.12500
H1363       H  0.91307141  0.34949527  0.88979590     0.15300
H1364       H  0.96162923  0.31171242  0.93679856     0.15100
C1365       C  0.71412053  0.14565630  0.04163308    -0.17800
C1366       C  0.71416373  0.11554369  0.05390684    -0.19900
C1367       C  0.68019960  0.09477395  0.06693555     0.20700
C1368       C  0.64489753  0.10309638  0.06717041    -0.02900
C1369       C  0.64506461  0.13385086  0.05487853    -0.05900
C1370       C  0.68031029  0.15569103  0.04234484     0.21000
C1371       C  0.61114361  0.14418871  0.05573253     0.19200
C1372       C  0.57627760  0.12201495  0.06829545    -0.17400
C1373       C  0.57587436  0.09111880  0.08038718    -0.19600
C1374       C  0.61044054  0.08203051  0.08018809     0.20600
C1375       C  0.61205929  0.05341661  0.09313005    -0.32600
C1376       C  0.64815212  0.04660574  0.09334666     0.01300
C1377       C  0.68169711  0.06686393  0.08010860    -0.24000
C1378       C  0.68259011  0.18898154  0.03150147    -0.28500
C1379       C  0.65086438  0.20181624  0.03330824     0.07000
C1380       C  0.61407827  0.17808364  0.04478118    -0.27200
H1381       H  0.74128169  0.16213034  0.03199765     0.11700
H1382       H  0.74126401  0.10919724  0.05349150     0.12900
H1383       H  0.54985794  0.12932473  0.06910235     0.11900
H1384       H  0.54906856  0.07512334  0.09022733     0.11200
H1385       H  0.58623545  0.03766879  0.10344093     0.16600
H1386       H  0.70927797  0.06120867  0.08029109     0.12500
H1387       H  0.71057768  0.20660219  0.02237090     0.15300
H1388       H  0.58940273  0.18772543  0.04612672     0.15100
C1389       C  0.94135040  0.53413545  0.05946241    -0.17800
C1390       C  0.91101620  0.50115714  0.04860612    -0.19900
C1391       C  0.87369722  0.50186984  0.04245755     0.20700
C1392       C  0.86782066  0.53706402  0.04643865    -0.02900
C1393       C  0.89907896  0.57090876  0.05704025    -0.05900
C1394       C  0.93530143  0.56877777  0.06405216     0.21000
C1395       C  0.89324649  0.60602261  0.06120878     0.19200
C1396       C  0.85638977  0.60719872  0.05462297    -0.17400
C1397       C  0.82491923  0.57322183  0.04444448    -0.19600
C1398       C  0.83004964  0.53772694  0.04041318     0.20600
C1399       C  0.79754315  0.50225888  0.03110366    -0.32600
C1400       C  0.80247872  0.46621373  0.02794499     0.01300
C1401       C  0.84137127  0.46710884  0.03309217    -0.24000
C1402       C  0.96381164  0.60027016  0.07617488    -0.28500
C1403       C  0.95806698  0.63526214  0.08072689     0.07000
C1404       C  0.92348926  0.63853335  0.07246652    -0.27200
H1405       H  0.96919450  0.53218753  0.06453626     0.11700
H1406       H  0.91606429  0.47439898  0.04551653     0.12900
H1407       H  0.85132546  0.63392560  0.05776118     0.11900
H1408       H  0.79627699  0.57445453  0.03995500     0.11200
H1409       H  0.76779212  0.50193410  0.02710541     0.16600
H1410       H  0.84588455  0.43985484  0.03038518     0.12500
H1411       H  0.98915685  0.59628269  0.08271143     0.15300
H1412       H  0.91891839  0.66560929  0.07548597     0.15100
C1413       C  0.75682124  0.58102559  0.96113865    -0.17800
C1414       C  0.76106920  0.61848408  0.95317800    -0.19900
C1415       C  0.72581173  0.61849432  0.94423844     0.20700
C1416       C  0.68551852  0.58076509  0.94380189    -0.02900
C1417       C  0.68111474  0.54313573  0.95199869    -0.05900
C1418       C  0.71714953  0.54302757  0.96041490     0.21000
C1419       C  0.64092539  0.50537556  0.95131849     0.19200
C1420       C  0.60541375  0.50551864  0.94273272    -0.17400
C1421       C  0.60999815  0.54258387  0.93433000    -0.19600
C1422       C  0.65000816  0.58020601  0.93459730     0.20600
C1423       C  0.65559189  0.61671055  0.92514117    -0.32600
C1424       C  0.69600872  0.65405445  0.92500322     0.01300
C1425       C  0.73058995  0.65504694  0.93506584    -0.24000
C1426       C  0.71297494  0.50481137  0.96766347    -0.28500
C1427       C  0.67300708  0.46699684  0.96680849     0.07000
C1428       C  0.63707269  0.46783250  0.95887159    -0.27200
H1429       H  0.78473070  0.58165741  0.96764635     0.11700
H1430       H  0.79222852  0.64724915  0.95365320     0.12900
H1431       H  0.57430157  0.47670893  0.94217646     0.11900
H1432       H  0.58240552  0.54167030  0.92739045     0.11200
H1433       H  0.62913811  0.61536991  0.91707953     0.16600
H1434       H  0.76185207  0.68381107  0.93497894     0.12900
H1435       H  0.74063951  0.50450579  0.97397514     0.15300
H1436       H  0.60609875  0.43886477  0.95815118     0.15100
loop_ 
_geom_bond_atom_site_label_1 
_geom_bond_atom_site_label_2 
_geom_bond_distance 
_geom_bond_site_symmetry_2 
_ccdc_geom_bond_type 
O1           Ni7   1.923       .  S
O1           C22   1.270       .  A
O2          Ni25   1.913       .  S
O2           C11   1.271       .  A
O3           Ni7   1.897       .  S
O3          Ni25   1.915   1_554  S
O3          Ni19   1.914       .  S
O3           H26   0.967       .  S
C4           O21   1.276       .  A
C4           O13   1.276       .  A
C4         C1304   1.467       .  S
O5          Ni24   1.921       .  S
O5           C11   1.271       .  A
O6          Ni24   1.905       .  S
O6            C8   1.267   1_556  A
Ni7          O10   1.920       .  S
Ni7          O12   1.886   1_554  S
C8           O18   1.275       .  A
C8         C1331   1.489       .  S
O9          Ni25   1.926   1_554  S
O9           C15   1.276       .  A
O10          C15   1.275       .  A
C11        C1427   1.479       .  S
O12          C14   1.266       .  A
O13         Ni24   1.918       .  S
C14          O20   1.281       .  A
C14        C1352   1.494       .  S
C15        C1400   1.484       .  S
H16          O17   0.967       .  S
O17         Ni25   1.915       .  S
O17         Ni19   1.902   1_556  S
O17         Ni24   1.901       .  S
O18         Ni19   1.945       .  S
Ni19         O23   1.910       .  S
Ni19         O21   1.924   1_554  S
O20         Ni25   1.967       .  S
C22          O23   1.267       .  A
C22        C1379   1.477       .  S
O27         Ni33   1.910       .  S
O27          C48   1.268       .  A
O28         Ni51   1.919       .  S
O28          C37   1.272       .  A
O29         Ni33   1.874       .  S
O29         Ni51   1.891       .  S
O29         Ni45   1.916       .  S
O29          H52   0.967       .  S
C30          O47   1.284       .  A
C30          O39   1.280       .  A
C30        C1187   1.478       .  S
O31         Ni50   1.916       .  S
O31          C37   1.268       .  A
O32         Ni50   1.886       .  S
O32          C34   1.265       .  A
Ni33         O36   1.909       .  S
Ni33         O38   1.910       .  S
C34          O44   1.277       .  A
C34        C1211   1.487       .  S
O35         Ni51   1.936       .  S
O35          C41   1.281       .  A
O36          C41   1.278       .  A
C37        C1259   1.476       .  S
O38          C40   1.267       .  A
O39         Ni50   1.915       .  S
C40          O46   1.276       .  A
C40        C1235   1.490       .  S
C41        C1280   1.469       .  S
H42          O43   0.966       .  S
O43         Ni51   1.908       .  S
O43         Ni45   1.897       .  S
O43         Ni50   1.874       .  S
O44         Ni45   1.955       .  S
Ni45         O49   1.935       .  S
Ni45         O47   1.924       .  S
O46         Ni51   1.943       .  S
C48          O49   1.278       .  A
C48        C1163   1.486       .  S
O53         Ni61   1.932       .  S
O53          C63   1.284       .  A
O54         Ni61   1.924   1_565  S
O54          C64   1.282       .  A
O55         Ni61   1.911       .  S
O55          C65   1.279       .  A
O56         Ni61   1.920   1_565  S
O56          C66   1.282       .  A
O57         Ni62   1.915   1_565  S
O57          C66   1.281       .  A
O58         Ni62   1.918       .  S
O58          C65   1.281       .  A
O59         Ni62   1.918   1_565  S
O59          C64   1.280       .  A
O60         Ni62   1.910       .  S
O60          C63   1.280       .  A
Ni61        Ni62   2.390       .  S
C63        C1112   1.480       .  S
C64        C1088   1.470       .  S
C65        C1064   1.466       .  S
C66        C1136   1.477       .  S
O67         Ni75   1.919       .  S
O67          C77   1.282       .  A
O68         Ni75   1.915       .  S
O68          C78   1.282       .  A
O69         Ni75   1.916       .  S
O69          C79   1.280       .  A
O70         Ni75   1.905       .  S
O70          C80   1.279       .  A
O71         Ni76   1.924       .  S
O71          C80   1.284       .  A
O72         Ni76   1.922       .  S
O72          C79   1.281       .  A
O73         Ni76   1.922       .  S
O73          C78   1.282       .  A
O74         Ni76   1.911       .  S
O74          C77   1.279       .  A
Ni75        Ni76   2.390       .  S
C77        C1016   1.467       .  S
C78         C971   1.482       .  S
C79        C1040   1.468       .  S
C80         C995   1.477       .  S
O81         Ni89   1.931       .  S
O81          C91   1.284       .  A
O82         Ni89   1.931   1_655  S
O82          C92   1.284       .  A
O83         Ni89   1.905   1_655  S
O83          C93   1.279       .  A
O84         Ni89   1.898       .  S
O84          C94   1.278       .  A
O85         Ni90   1.931       .  S
O85          C94   1.285       .  A
O86         Ni90   1.934   1_655  S
O86          C93   1.285       .  A
O87         Ni90   1.913   1_655  S
O87          C92   1.279       .  A
O88         Ni90   1.913       .  S
O88          C91   1.280       .  A
Ni89        Ni90   2.387       .  S
C91         C896   1.476       .  S
C92         C944   1.472       .  S
C93         C872   1.484       .  S
C94         C923   1.481       .  S
C95         C851   1.498       .  S
C95          C96   1.427   1_455  A
C95         C100   1.413       .  A
C96        C1160   1.495       .  S
C96          C97   1.414       .  A
C97          C98   1.399       .  A
C97         H102   1.084       .  S
C98        C1115   1.488       .  S
C98          C99   1.412   1_655  A
C99        C1043   1.488       .  S
C99         C100   1.403       .  A
C100        H101   1.084       .  S
C103        C827   1.484       .  S
C103        C104   1.420   1_565  A
C103        C108   1.401       .  A
C104       C1208   1.491       .  S
C104        C105   1.407       .  A
C105        C106   1.403       .  A
C105        H110   1.084       .  S
C106       C1019   1.488       .  S
C106        C107   1.421   1_545  A
C107        C920   1.486       .  S
C107        C108   1.398       .  A
C108        H109   1.084       .  S
C111        C803   1.497       .  S
C111        C112   1.423       .  A
C111        C116   1.410       .  A
C112       C1424   1.486       .  S
C112        C113   1.410       .  A
C113        C114   1.401       .  A
C113        H118   1.084       .  S
C114        C875   1.494       .  S
C114        C115   1.417       .  A
C115       C1091   1.484       .  S
C115        C116   1.401       .  A
C116        H117   1.084       .  S
C119       C1283   1.484       .  S
C119        C120   1.412       .  A
C119        C124   1.407       .  A
C120        C779   1.472       .  S
C120        C121   1.401       .  A
C121        C122   1.399       .  A
C121        H126   1.085       .  S
C122       C1139   1.483       .  S
C122        C123   1.419       .  A
C123        C947   1.488       .  S
C123        C124   1.403       .  A
C124        H125   1.084       .  S
C127       C1307   1.483       .  S
C127        C128   1.415   1_545  A
C127        C132   1.400       .  A
C128        C755   1.483       .  S
C128        C129   1.411       .  A
C129        C130   1.409       .  A
C129        H134   1.084       .  S
C130        C899   1.494       .  S
C130        C131   1.419   1_565  A
C131        C992   1.480       .  S
C131        C132   1.395       .  A
C132        H133   1.085       .  S
C135       C1355   1.491       .  S
C135        C136   1.421   1_655  A
C135        C140   1.408       .  A
C136        C728   1.491       .  S
C136        C137   1.407       .  A
C137        C138   1.397       .  A
C137        H142   1.084       .  S
C138        C968   1.489       .  S
C138        C139   1.422   1_455  A
C139       C1067   1.494       .  S
C139        C140   1.408       .  A
C140        H141   1.084       .  S
O143       Ni149   1.918       .  S
O143        C164   1.269       .  A
O144       Ni167   1.927       .  S
O144        C153   1.279       .  A
O145       Ni149   1.875       .  S
O145       Ni167   1.902       .  S
O145       Ni161   1.911       .  S
O145        H168   0.960       .  S
C146        O163   1.280       .  A
C146        O155   1.277       .  A
C146        C656   1.472       .  S
O147       Ni166   1.914       .  S
O147        C153   1.271       .  A
O148       Ni166   1.920       .  S
O148        C150   1.270       .  A
Ni149       O152   1.903       .  S
Ni149       O154   1.896       .  S
C150        O160   1.273       .  A
C150        C848   1.491       .  S
O151       Ni167   1.946       .  S
O151        C157   1.286       .  A
O152        C157   1.278       .  A
C153        C680   1.482       .  S
O154        C156   1.267       .  A
O155       Ni166   1.914       .  S
C156        O162   1.279       .  A
C156        C707   1.493       .  S
C157        C824   1.488       .  S
H158        O159   0.962       .  S
O159       Ni167   1.921       .  S
O159       Ni161   1.892       .  S
O159       Ni166   1.882       .  S
O160       Ni161   1.936       .  S
Ni161       O165   1.913       .  S
Ni161       O163   1.938       .  S
O162       Ni167   1.958       .  S
C164        O165   1.268       .  A
C164        C776   1.470       .  S
O169       Ni175   1.911       .  S
O169        C190   1.270       .  A
O170       Ni193   1.902       .  S
O170        C179   1.265       .  A
O171       Ni175   1.884       .  S
O171       Ni193   1.894   1_554  S
O171       Ni187   1.911       .  S
O171        H194   0.966       .  S
C172        O189   1.279       .  A
C172        O181   1.278       .  A
C172        C731   1.482       .  S
O173       Ni192   1.935       .  S
O173        C179   1.273       .  A
O174       Ni192   1.894       .  S
O174        C176   1.268   1_556  A
Ni175       O178   1.907       .  S
Ni175       O180   1.916       .  S
C176        O186   1.280       .  A
C176        C608   1.488       .  S
O177       Ni193   1.945   1_554  S
O177        C183   1.281       .  A
O178        C183   1.277       .  A
C179        C752   1.466       .  S
O180        C182   1.268   1_554  A
O181       Ni192   1.930       .  S
C182        O188   1.273       .  A
C182        C800   1.491       .  S
C183        C632   1.475       .  S
H184        O185   0.966       .  S
O185       Ni193   1.911       .  S
O185       Ni187   1.913   1_556  S
O185       Ni192   1.896       .  S
O186       Ni187   1.961       .  S
Ni187       O191   1.941       .  S
Ni187       O189   1.917   1_554  S
O188       Ni193   1.935       .  S
C190        O191   1.279       .  A
C190        C584   1.489       .  S
O195       Ni203   1.920       .  S
O195        C205   1.282       .  A
O196       Ni203   1.911   1_455  S
O196        C206   1.279       .  A
O197       Ni203   1.931   1_455  S
O197        C207   1.284       .  A
O198       Ni203   1.924       .  S
O198        C208   1.283       .  A
O199       Ni204   1.924       .  S
O199        C208   1.283       .  A
O200       Ni204   1.915   1_455  S
O200        C207   1.281       .  A
O201       Ni204   1.925   1_455  S
O201        C206   1.282       .  A
O202       Ni204   1.929       .  S
O202        C205   1.284       .  A
Ni203      Ni204   2.386       .  S
C205        C512   1.489       .  S
C206        C536   1.469       .  S
C207        C560   1.485       .  S
C208        C488   1.489       .  S
O209       Ni217   1.907       .  S
O209        C219   1.279       .  A
O210       Ni217   1.907       .  S
O210        C220   1.280       .  A
O211       Ni217   1.911       .  S
O211        C221   1.279       .  A
O212       Ni217   1.916       .  S
O212        C222   1.281       .  A
O213       Ni218   1.920       .  S
O213        C222   1.281       .  A
O214       Ni218   1.921       .  S
O214        C221   1.282       .  A
O215       Ni218   1.921       .  S
O215        C220   1.282       .  A
O216       Ni218   1.920       .  S
O216        C219   1.281       .  A
Ni217      Ni218   2.391       .  S
C219        C440   1.464       .  S
C220        C416   1.476       .  S
C221        C464   1.467       .  S
C222        C392   1.471       .  S
C223       C1184   1.470       .  S
C223        C224   1.416   1_545  A
C223        C228   1.401       .  A
C224        C704   1.499       .  S
C224        C225   1.407       .  A
C225        C226   1.409       .  A
C225        H230   1.084       .  S
C226        C443   1.484       .  S
C226        C227   1.421   1_565  A
C227        C491   1.493       .  S
C227        C228   1.397       .  A
C228        H229   1.085       .  S
O231       Ni239   1.933       .  S
O231        C241   1.284       .  A
O232       Ni239   1.922   1_545  S
O232        C242   1.282       .  A
O233       Ni239   1.914   1_545  S
O233        C243   1.281       .  A
O234       Ni239   1.918       .  S
O234        C244   1.280       .  A
O235       Ni240   1.929       .  S
O235        C244   1.283       .  A
O236       Ni240   1.917   1_545  S
O236        C243   1.281       .  A
O237       Ni240   1.919   1_545  S
O237        C242   1.281       .  A
O238       Ni240   1.909       .  S
O238        C241   1.281       .  A
Ni239      Ni240   2.389       .  S
C241        C296   1.486       .  S
C242        C368   1.474       .  S
C243        C347   1.475       .  S
C244        C320   1.476       .  S
C245       C1376   1.476       .  S
C245        C246   1.413   1_545  A
C245        C250   1.409       .  A
C246        C635   1.493       .  S
C246        C247   1.407       .  A
C247        C248   1.402       .  A
C247        H252   1.084       .  S
C248        C467   1.488       .  S
C248        C249   1.420   1_565  A
C249        C515   1.494       .  S
C249        C250   1.403       .  A
C250        H251   1.084       .  S
C253       C1256   1.472       .  S
C253        C254   1.415       .  A
C253        C258   1.400       .  A
C254        C659   1.490       .  S
C254        C255   1.409       .  A
C255        C256   1.406       .  A
C255        H260   1.084       .  S
C256        C539   1.489       .  S
C256        C257   1.417       .  A
C257        C344   1.478       .  S
C257        C258   1.393       .  A
C258        H259   1.085       .  S
C261       C1328   1.500       .  S
C261        C262   1.425       .  A
C261        C266   1.414       .  A
C262        C587   1.492       .  S
C262        C263   1.410       .  A
C263        C264   1.400       .  A
C263        H268   1.084       .  S
C264        C563   1.487       .  S
C264        C265   1.418       .  A
C265        C371   1.499       .  S
C265        C266   1.407       .  A
C266        H267   1.083       .  S
C269       C1232   1.502       .  S
C269        C270   1.424   1_655  A
C269        C274   1.414       .  A
C270        C683   1.492       .  S
C270        C271   1.409       .  A
C271        C272   1.399       .  A
C271        H276   1.084       .  S
C272        C299   1.491       .  S
C272        C273   1.421   1_455  A
C273        C395   1.501       .  S
C273        C274   1.407       .  A
C274        H275   1.083       .  S
C277       C1403   1.503       .  S
C277        C278   1.427   1_655  A
C277        C282   1.407       .  A
C278        C611   1.489       .  S
C278        C279   1.413       .  A
C279        C280   1.405       .  A
C279        H284   1.084       .  S
C280        C323   1.499       .  S
C280        C281   1.417   1_455  A
C281        C419   1.482       .  S
C281        C282   1.398       .  A
C282        H283   1.084       .  S
C285        C286   1.397       .  A
C285        C290   1.402       .  A
C285        H301   1.084   1_455  S
C286        C287   1.403       .  A
C286        H302   1.084       .  S
C287        C297   1.399       .  A
C287        C288   1.409       .  A
C288        C294   1.413       .  A
C288        C289   1.413       .  A
C289        C291   1.410       .  A
C289        C290   1.413       .  A
C290        C298   1.401       .  A
C291        C300   1.405       .  A
C291        C292   1.405       .  A
C292        C293   1.402       .  A
C292        H303   1.084       .  S
C293        C294   1.405       .  A
C293        H304   1.083       .  S
C294        C295   1.410       .  A
C295        C296   1.409       .  A
C295        H305   1.084       .  S
C296        C297   1.408       .  A
C297        H306   1.084       .  S
C298        C299   1.405       .  A
C298        H307   1.084   1_455  S
C299        C300   1.409       .  A
C300        H308   1.084       .  S
C309        C310   1.402       .  A
C309        C314   1.404       .  A
C309        H325   1.083       .  S
C310        C311   1.405       .  A
C310        H326   1.084       .  S
C311        C321   1.407       .  A
C311        C312   1.412       .  A
C312        C318   1.413       .  A
C312        C313   1.415       .  A
C313        C315   1.410       .  A
C313        C314   1.412       .  A
C314        C322   1.408       .  A
C315        C324   1.403       .  A
C315        C316   1.404       .  A
C316        C317   1.400       .  A
C316        H327   1.084   1_455  S
C317        C318   1.404       .  A
C317        H328   1.083       .  S
C318        C319   1.406       .  A
C319        C320   1.404       .  A
C319        H329   1.084       .  S
C320        C321   1.406       .  A
C321        H330   1.085       .  S
C322        C323   1.409       .  A
C322        H331   1.084       .  S
C323        C324   1.409       .  A
C324        H332   1.084       .  S
C333        C334   1.397       .  A
C333        C338   1.403       .  A
C333        H349   1.083       .  S
C334        C335   1.402       .  A
C334        H350   1.084       .  S
C335        C345   1.397       .  A
C335        C336   1.411       .  A
C336        C342   1.413       .  A
C336        C337   1.409       .  A
C337        C339   1.410       .  A
C337        C338   1.413       .  A
C338        C346   1.402       .  A
C339        C348   1.401       .  A
C339        C340   1.404       .  A
C340        C341   1.399       .  A
C340        H351   1.084       .  S
C341        C342   1.403       .  A
C341        H352   1.084       .  S
C342        C343   1.403       .  A
C343        C344   1.404       .  A
C343        H353   1.084       .  S
C344        C345   1.403       .  A
C345        H354   1.085       .  S
C346        C347   1.405       .  A
C346        H355   1.084       .  S
C347        C348   1.406       .  A
C348        H356   1.084       .  S
C357        C358   1.399       .  A
C357        C362   1.403       .  A
C357        H373   1.083       .  S
C358        C359   1.403       .  A
C358        H374   1.083       .  S
C359        C369   1.402       .  A
C359        C360   1.411       .  A
C360        C366   1.413       .  A
C360        C361   1.412       .  A
C361        C363   1.409       .  A
C361        C362   1.412       .  A
C362        C370   1.405       .  A
C363        C372   1.402       .  A
C363        C364   1.405       .  A
C364        C365   1.401       .  A
C364        H375   1.084       .  S
C365        C366   1.405       .  A
C365        H376   1.084       .  S
C366        C367   1.407       .  A
C367        C368   1.407       .  A
C367        H377   1.085       .  S
C368        C369   1.403       .  A
C369        H378   1.084       .  S
C370        C371   1.408       .  A
C370        H379   1.084       .  S
C371        C372   1.410       .  A
C372        H380   1.082       .  S
C381        C382   1.399       .  A
C381        C386   1.404       .  A
C381        H397   1.084       .  S
C382        C383   1.403       .  A
C382        H398   1.084       .  S
C383        C393   1.402       .  A
C383        C384   1.412       .  A
C384        C390   1.412       .  A
C384        C385   1.412       .  A
C385        C387   1.411       .  A
C385        C386   1.410       .  A
C386        C394   1.401       .  A
C387        C396   1.406       .  A
C387        C388   1.404       .  A
C388        C389   1.401       .  A
C388        H399   1.083       .  S
C389        C390   1.404       .  A
C389        H400   1.084       .  S
C390        C391   1.405       .  A
C391        C392   1.405       .  A
C391        H401   1.085       .  S
C392        C393   1.404       .  A
C393        H402   1.085       .  S
C394        C395   1.410       .  A
C394        H403   1.083       .  S
C395        C396   1.410       .  A
C396        H404   1.084       .  S
C405        C406   1.397       .  A
C405        C410   1.402       .  A
C405        H421   1.084       .  S
C406        C407   1.403       .  A
C406        H422   1.084       .  S
C407        C417   1.398       .  A
C407        C408   1.410       .  A
C408        C414   1.412       .  A
C408        C409   1.409       .  A
C409        C411   1.411       .  A
C409        C410   1.412       .  A
C410        C418   1.399       .  A
C411        C420   1.401       .  A
C411        C412   1.403       .  A
C412        C413   1.399       .  A
C412        H423   1.084       .  S
C413        C414   1.404       .  A
C413        H424   1.084       .  S
C414        C415   1.404       .  A
C415        C416   1.406       .  A
C415        H425   1.084       .  S
C416        C417   1.406       .  A
C417        H426   1.084       .  S
C418        C419   1.404       .  A
C418        H427   1.084       .  S
C419        C420   1.405       .  A
C420        H428   1.084       .  S
C429        C430   1.397       .  A
C429        C434   1.403       .  A
C429        H445   1.084       .  S
C430        C431   1.403       .  A
C430        H446   1.084       .  S
C431        C441   1.398       .  A
C431        C432   1.411       .  A
C432        C438   1.413       .  A
C432        C433   1.409       .  A
C433        C435   1.411       .  A
C433        C434   1.411       .  A
C434        C442   1.398       .  A
C435        C444   1.402       .  A
C435        C436   1.403       .  A
C436        C437   1.399       .  A
C436        H447   1.084       .  S
C437        C438   1.403       .  A
C437        H448   1.083       .  S
C438        C439   1.404       .  A
C439        C440   1.403       .  A
C439        H449   1.084       .  S
C440        C441   1.402       .  A
C441        H450   1.085       .  S
C442        C443   1.406       .  A
C442        H451   1.084       .  S
C443        C444   1.405       .  A
C444        H452   1.084       .  S
C453        C454   1.399       .  A
C453        C458   1.403       .  A
C453        H469   1.084       .  S
C454        C455   1.404       .  A
C454        H470   1.084       .  S
C455        C465   1.402       .  A
C455        C456   1.412       .  A
C456        C462   1.412       .  A
C456        C457   1.409       .  A
C457        C459   1.412       .  A
C457        C458   1.410       .  A
C458        C466   1.400       .  A
C459        C468   1.401       .  A
C459        C460   1.403       .  A
C460        C461   1.398       .  A
C460        H471   1.084       .  S
C461        C462   1.403       .  A
C461        H472   1.083       .  S
C462        C463   1.401       .  A
C463        C464   1.402       .  A
C463        H473   1.084       .  S
C464        C465   1.404       .  A
C465        H474   1.085       .  S
C466        C467   1.407       .  A
C466        H475   1.084       .  S
C467        C468   1.406       .  A
C468        H476   1.084       .  S
C477        C478   1.401       .  A
C477        C482   1.404       .  A
C477        H493   1.084   1_545  S
C478        C479   1.405       .  A
C478        H494   1.083       .  S
C479        C489   1.407       .  A
C479        C480   1.411       .  A
C480        C486   1.411       .  A
C480        C481   1.414       .  A
C481        C483   1.411       .  A
C481        C482   1.412       .  A
C482        C490   1.406       .  A
C483        C492   1.403       .  A
C483        C484   1.403       .  A
C484        C485   1.399       .  A
C484        H495   1.084       .  S
C485        C486   1.404       .  A
C485        H496   1.084       .  S
C486        C487   1.405       .  A
C487        C488   1.408       .  A
C487        H497   1.084       .  S
C488        C489   1.410       .  A
C489        H498   1.084       .  S
C490        C491   1.408       .  A
C490        H499   1.084   1_545  S
C491        C492   1.407       .  A
C492        H500   1.084       .  S
C501        C502   1.400       .  A
C501        C506   1.404       .  A
C501        H517   1.084   1_545  S
C502        C503   1.404       .  A
C502        H518   1.083       .  S
C503        C513   1.407       .  A
C503        C504   1.412       .  A
C504        C510   1.410       .  A
C504        C505   1.415       .  A
C505        C507   1.413       .  A
C505        C506   1.410       .  A
C506        C514   1.403       .  A
C507        C516   1.408       .  A
C507        C508   1.404       .  A
C508        C509   1.401       .  A
C508        H519   1.083       .  S
C509        C510   1.405       .  A
C509        H520   1.083       .  S
C510        C511   1.406       .  A
C511        C512   1.410       .  A
C511        H521   1.084       .  S
C512        C513   1.409       .  A
C513        H522   1.084       .  S
C514        C515   1.409       .  A
C514        H523   1.084   1_545  S
C515        C516   1.406       .  A
C516        H524   1.084       .  S
C525        C526   1.398       .  A
C525        C530   1.403       .  A
C525        H541   1.084       .  S
C526        C527   1.403       .  A
C526        H542   1.084       .  S
C527        C537   1.401       .  A
C527        C528   1.411       .  A
C528        C534   1.413       .  A
C528        C529   1.411       .  A
C529        C531   1.410       .  A
C529        C530   1.412       .  A
C530        C538   1.403       .  A
C531        C540   1.402       .  A
C531        C532   1.404       .  A
C532        C533   1.400       .  A
C532        H543   1.084       .  S
C533        C534   1.404       .  A
C533        H544   1.084       .  S
C534        C535   1.405       .  A
C535        C536   1.404       .  A
C535        H545   1.084       .  S
C536        C537   1.403       .  A
C537        H546   1.085       .  S
C538        C539   1.405       .  A
C538        H547   1.084       .  S
C539        C540   1.409       .  A
C540        H548   1.084       .  S
C549        C550   1.402       .  A
C549        C554   1.405       .  A
C549        H565   1.084       .  S
C550        C551   1.405       .  A
C550        H566   1.083       .  S
C551        C561   1.410       .  A
C551        C552   1.412       .  A
C552        C558   1.411       .  A
C552        C553   1.414       .  A
C553        C555   1.412       .  A
C553        C554   1.412       .  A
C554        C562   1.407       .  A
C555        C564   1.402       .  A
C555        C556   1.402       .  A
C556        C557   1.398       .  A
C556        H567   1.083       .  S
C557        C558   1.403       .  A
C557        H568   1.083       .  S
C558        C559   1.402       .  A
C559        C560   1.407       .  A
C559        H569   1.084       .  S
C560        C561   1.409       .  A
C561        H570   1.084       .  S
C562        C563   1.407       .  A
C562        H571   1.084       .  S
C563        C564   1.404       .  A
C564        H572   1.084       .  S
C573        C574   1.398       .  A
C573        C578   1.402       .  A
C573        H589   1.084       .  S
C574        C575   1.404       .  A
C574        H590   1.084       .  S
C575        C585   1.399       .  A
C575        C576   1.408       .  A
C576        C582   1.415       .  A
C576        C577   1.416       .  A
C577        C579   1.409       .  A
C577        C578   1.414       .  A
C578        C586   1.405       .  A
C579        C588   1.408       .  A
C579        C580   1.406       .  A
C580        C581   1.404       .  A
C580        H591   1.083       .  S
C581        C582   1.405       .  A
C581        H592   1.083       .  S
C582        C583   1.414       .  A
C583        C584   1.408       .  A
C583        H593   1.084       .  S
C584        C585   1.410       .  A
C585        H594   1.085       .  S
C586        C587   1.404       .  A
C586        H595   1.084       .  S
C587        C588   1.412       .  A
C588        H596   1.084       .  S
C597        C598   1.403       .  A
C597        C602   1.405       .  A
C597        H613   1.083       .  S
C598        C599   1.404       .  A
C598        H614   1.083       .  S
C599        C609   1.412       .  A
C599        C600   1.415       .  A
C600        C606   1.408       .  A
C600        C601   1.414       .  A
C601        C603   1.414       .  A
C601        C602   1.409       .  A
C602        C610   1.406       .  A
C603        C612   1.404       .  A
C603        C604   1.402       .  A
C604        C605   1.398       .  A
C604        H615   1.084       .  S
C605        C606   1.404       .  A
C605        H616   1.084       .  S
C606        C607   1.399       .  A
C607        C608   1.410       .  A
C607        H617   1.084       .  S
C608        C609   1.408       .  A
C609        H618   1.084       .  S
C610        C611   1.410       .  A
C610        H619   1.084       .  S
C611        C612   1.404       .  A
C612        H620   1.084       .  S
C621        C622   1.405       .  A
C621        C626   1.407       .  A
C621        H637   1.084       .  S
C622        C623   1.406       .  A
C622        H638   1.083       .  S
C623        C633   1.413       .  A
C623        C624   1.414       .  A
C624        C630   1.410       .  A
C624        C625   1.413       .  A
C625        C627   1.412       .  A
C625        C626   1.411       .  A
C626        C634   1.410       .  A
C627        C636   1.397       .  A
C627        C628   1.401       .  A
C628        C629   1.394       .  A
C628        H639   1.084       .  S
C629        C630   1.401       .  A
C629        H640   1.084       .  S
C630        C631   1.394       .  A
C631        C632   1.402       .  A
C631        H641   1.085       .  S
C632        C633   1.408       .  A
C633        H642   1.084       .  S
C634        C635   1.412       .  A
C634        H643   1.083       .  S
C635        C636   1.404       .  A
C636        H644   1.085       .  S
C645        C646   1.399       .  A
C645        C650   1.403       .  A
C645        H661   1.084       .  S
C646        C647   1.404       .  A
C646        H662   1.084       .  S
C647        C657   1.401       .  A
C647        C648   1.410       .  A
C648        C654   1.414       .  A
C648        C649   1.412       .  A
C649        C651   1.410       .  A
C649        C650   1.413       .  A
C650        C658   1.404       .  A
C651        C660   1.401       .  A
C651        C652   1.404       .  A
C652        C653   1.399       .  A
C652        H663   1.084       .  S
C653        C654   1.403       .  A
C653        H664   1.083       .  S
C654        C655   1.405       .  A
C655        C656   1.403       .  A
C655        H665   1.084       .  S
C656        C657   1.406       .  A
C657        H666   1.085       .  S
C658        C659   1.406       .  A
C658        H667   1.084       .  S
C659        C660   1.408       .  A
C660        H668   1.083       .  S
C669        C670   1.399       .  A
C669        C674   1.404       .  A
C669        H685   1.083       .  S
C670        C671   1.402       .  A
C670        H686   1.084       .  S
C671        C681   1.406       .  A
C671        C672   1.414       .  A
C672        C678   1.408       .  A
C672        C673   1.413       .  A
C673        C675   1.414       .  A
C673        C674   1.409       .  A
C674        C682   1.401       .  A
C675        C684   1.406       .  A
C675        C676   1.403       .  A
C676        C677   1.399       .  A
C676        H687   1.084       .  S
C677        C678   1.405       .  A
C677        H688   1.084       .  S
C678        C679   1.400       .  A
C679        C680   1.412       .  A
C679        H689   1.084       .  S
C680        C681   1.404       .  A
C681        H690   1.084       .  S
C682        C683   1.410       .  A
C682        H691   1.084       .  S
C683        C684   1.407       .  A
C684        H692   1.084       .  S
C693        C694   1.404       .  A
C693        C698   1.405       .  A
C693        H709   1.083       .  S
C694        C695   1.406       .  A
C694        H710   1.083       .  S
C695        C705   1.410       .  A
C695        C696   1.410       .  A
C696        C702   1.412       .  A
C696        C697   1.417       .  A
C697        C699   1.408       .  A
C697        C698   1.414       .  A
C698        C706   1.414       .  A
C699        C708   1.401       .  A
C699        C700   1.404       .  A
C700        C701   1.398       .  A
C700        H711   1.084       .  S
C701        C702   1.403       .  A
C701        H712   1.084       .  S
C702        C703   1.404       .  A
C703        C704   1.408       .  A
C703        H713   1.083       .  S
C704        C705   1.412       .  A
C705        H714   1.084       .  S
C706        C707   1.409       .  A
C706        H715   1.084       .  S
C707        C708   1.412       .  A
C708        H716   1.084       .  S
C717        C718   1.400       .  A
C717        C722   1.405       .  A
C717        H733   1.084       .  S
C718        C719   1.403       .  A
C718        H734   1.084       .  S
C719        C729   1.405       .  A
C719        C720   1.413       .  A
C720        C726   1.409       .  A
C720        C721   1.411       .  A
C721        C723   1.413       .  A
C721        C722   1.409       .  A
C722        C730   1.402       .  A
C723        C732   1.403       .  A
C723        C724   1.402       .  A
C724        C725   1.397       .  A
C724        H735   1.084       .  S
C725        C726   1.403       .  A
C725        H736   1.084       .  S
C726        C727   1.399       .  A
C727        C728   1.409       .  A
C727        H737   1.084       .  S
C728        C729   1.407       .  A
C729        H738   1.083       .  S
C730        C731   1.411       .  A
C730        H739   1.084       .  S
C731        C732   1.404       .  A
C732        H740   1.084       .  S
C741        C742   1.395       .  A
C741        C746   1.402       .  A
C741        H757   1.084       .  S
C742        C743   1.402       .  A
C742        H758   1.084       .  S
C743        C753   1.398       .  A
C743        C744   1.412       .  A
C744        C750   1.413       .  A
C744        C745   1.410       .  A
C745        C747   1.412       .  A
C745        C746   1.411       .  A
C746        C754   1.396       .  A
C747        C756   1.406       .  A
C747        C748   1.404       .  A
C748        C749   1.401       .  A
C748        H759   1.083       .  S
C749        C750   1.404       .  A
C749        H760   1.084       .  S
C750        C751   1.405       .  A
C751        C752   1.404       .  A
C751        H761   1.084       .  S
C752        C753   1.401       .  A
C753        H762   1.085       .  S
C754        C755   1.404       .  A
C754        H763   1.084       .  S
C755        C756   1.407       .  A
C756        H764   1.084       .  S
C765        C766   1.392       .  A
C765        C770   1.400       .  A
C765        H781   1.084       .  S
C766        C767   1.401       .  A
C766        H782   1.084       .  S
C767        C777   1.392       .  A
C767        C768   1.410       .  A
C768        C774   1.413       .  A
C768        C769   1.409       .  A
C769        C771   1.413       .  A
C769        C770   1.412       .  A
C770        C778   1.393       .  A
C771        C780   1.407       .  A
C771        C772   1.405       .  A
C772        C773   1.403       .  A
C772        H783   1.083       .  S
C773        C774   1.405       .  A
C773        H784   1.084       .  S
C774        C775   1.408       .  A
C775        C776   1.406       .  A
C775        H785   1.084       .  S
C776        C777   1.403       .  A
C777        H786   1.085       .  S
C778        C779   1.398       .  A
C778        H787   1.085       .  S
C779        C780   1.406       .  A
C780        H788   1.084       .  S
C789        C790   1.402       .  A
C789        C794   1.404       .  A
C789        H805   1.083       .  S
C790        C791   1.405       .  A
C790        H806   1.084       .  S
C791        C801   1.406       .  A
C791        C792   1.409       .  A
C792        C798   1.413       .  A
C792        C793   1.416       .  A
C793        C795   1.409       .  A
C793        C794   1.413       .  A
C794        C802   1.410       .  A
C795        C804   1.403       .  A
C795        C796   1.404       .  A
C796        C797   1.400       .  A
C796        H807   1.084       .  S
C797        C798   1.404       .  A
C797        H808   1.083       .  S
C798        C799   1.408       .  A
C799        C800   1.409       .  A
C799        H809   1.084       .  S
C800        C801   1.411       .  A
C801        H810   1.084   1_556  S
C802        C803   1.409       .  A
C802        H811   1.084       .  S
C803        C804   1.410       .  A
C804        H812   1.084       .  S
C813        C814   1.393       .  A
C813        C818   1.400       .  A
C813        H829   1.084       .  S
C814        C815   1.402       .  A
C814        H830   1.084       .  S
C815        C825   1.390       .  A
C815        C816   1.406       .  A
C816        C822   1.415       .  A
C816        C817   1.411       .  A
C817        C819   1.409       .  A
C817        C818   1.414       .  A
C818        C826   1.396       .  A
C819        C828   1.406       .  A
C819        C820   1.406       .  A
C820        C821   1.404       .  A
C820        H831   1.083       .  S
C821        C822   1.405       .  A
C821        H832   1.083       .  S
C822        C823   1.415       .  A
C823        C824   1.410       .  A
C823        H833   1.084       .  S
C824        C825   1.411       .  A
C825        H834   1.084       .  S
C826        C827   1.400       .  A
C826        H835   1.084       .  S
C827        C828   1.411       .  A
C828        H836   1.084       .  S
C837        C838   1.402       .  A
C837        C842   1.404       .  A
C837        H853   1.083       .  S
C838        C839   1.405       .  A
C838        H854   1.083       .  S
C839        C849   1.407       .  A
C839        C840   1.410       .  A
C840        C846   1.413       .  A
C840        C841   1.417       .  A
C841        C843   1.409       .  A
C841        C842   1.413       .  A
C842        C850   1.411       .  A
C843        C852   1.405       .  A
C843        C844   1.405       .  A
C844        C845   1.401       .  A
C844        H855   1.084       .  S
C845        C846   1.404       .  A
C845        H856   1.084       .  S
C846        C847   1.409       .  A
C847        C848   1.409       .  A
C847        H857   1.084       .  S
C848        C849   1.410       .  A
C849        H858   1.084       .  S
C850        C851   1.408       .  A
C850        H859   1.084       .  S
C851        C852   1.411       .  A
C852        H860   1.084       .  S
C861        C862   1.398       .  A
C861        C866   1.403       .  A
C861        H877   1.084       .  S
C862        C863   1.404       .  A
C862        H878   1.084       .  S
C863        C873   1.401       .  A
C863        C864   1.410       .  A
C864        C870   1.412       .  A
C864        C865   1.413       .  A
C865        C867   1.411       .  A
C865        C866   1.411       .  A
C866        C874   1.401       .  A
C867        C876   1.406       .  A
C867        C868   1.404       .  A
C868        C869   1.401       .  A
C868        H879   1.083       .  S
C869        C870   1.404       .  A
C869        H880   1.083       .  S
C870        C871   1.407       .  A
C871        C872   1.407       .  A
C871        H881   1.084       .  S
C872        C873   1.409       .  A
C873        H882   1.084       .  S
C874        C875   1.407       .  A
C874        H883   1.084       .  S
C875        C876   1.408       .  A
C876        H884   1.084       .  S
C885        C886   1.399       .  A
C885        C890   1.403       .  A
C885        H901   1.084       .  S
C886        C887   1.404       .  A
C886        H902   1.083       .  S
C887        C897   1.403       .  A
C887        C888   1.411       .  A
C888        C894   1.413       .  A
C888        C889   1.413       .  A
C889        C891   1.410       .  A
C889        C890   1.412       .  A
C890        C898   1.404       .  A
C891        C900   1.404       .  A
C891        C892   1.405       .  A
C892        C893   1.401       .  A
C892        H903   1.084   1_565  S
C893        C894   1.404       .  A
C893        H904   1.084       .  S
C894        C895   1.407       .  A
C895        C896   1.406       .  A
C895        H905   1.084       .  S
C896        C897   1.405       .  A
C897        H906   1.085       .  S
C898        C899   1.406       .  A
C898        H907   1.084       .  S
C899        C900   1.411       .  A
C900        H908   1.084   1_565  S
C909        C910   1.396       .  A
C909        C914   1.403       .  A
C909        H925   1.084       .  S
C910        C911   1.402       .  A
C910        H926   1.084   1_565  S
C911        C921   1.400       .  A
C911        C912   1.412       .  A
C912        C918   1.410       .  A
C912        C913   1.410       .  A
C913        C915   1.413       .  A
C913        C914   1.409       .  A
C914        C922   1.397       .  A
C915        C924   1.406       .  A
C915        C916   1.404       .  A
C916        C917   1.400       .  A
C916        H927   1.083       .  S
C917        C918   1.404       .  A
C917        H928   1.084       .  S
C918        C919   1.401       .  A
C919        C920   1.407       .  A
C919        H929   1.084       .  S
C920        C921   1.405       .  A
C921        H930   1.084   1_565  S
C922        C923   1.409       .  A
C922        H931   1.084       .  S
C923        C924   1.407       .  A
C924        H932   1.084       .  S
C933        C934   1.398       .  A
C933        C938   1.403       .  A
C933        H949   1.084       .  S
C934        C935   1.403       .  A
C934        H950   1.083       .  S
C935        C945   1.405       .  A
C935        C936   1.414       .  A
C936        C942   1.411       .  A
C936        C937   1.412       .  A
C937        C939   1.413       .  A
C937        C938   1.410       .  A
C938        C946   1.399       .  A
C939        C948   1.406       .  A
C939        C940   1.404       .  A
C940        C941   1.401       .  A
C940        H951   1.084       .  S
C941        C942   1.405       .  A
C941        H952   1.084       .  S
C942        C943   1.405       .  A
C943        C944   1.406       .  A
C943        H953   1.085       .  S
C944        C945   1.402       .  A
C945        H954   1.084       .  S
C946        C947   1.406       .  A
C946        H955   1.084       .  S
C947        C948   1.407       .  A
C948        H956   1.084       .  S
C957        C958   1.402       .  A
C957        C962   1.405       .  A
C957        H973   1.084       .  S
C958        C959   1.405       .  A
C958        H974   1.084       .  S
C959        C969   1.405       .  A
C959        C960   1.411       .  A
C960        C966   1.412       .  A
C960        C961   1.412       .  A
C961        C963   1.410       .  A
C961        C962   1.412       .  A
C962        C970   1.408       .  A
C963        C972   1.400       .  A
C963        C964   1.403       .  A
C964        C965   1.397       .  A
C964        H975   1.083       .  S
C965        C966   1.402       .  A
C965        H976   1.083       .  S
C966        C967   1.401       .  A
C967        C968   1.405       .  A
C967        H977   1.084       .  S
C968        C969   1.408       .  A
C969        H978   1.084       .  S
C970        C971   1.409       .  A
C970        H979   1.084       .  S
C971        C972   1.406       .  A
C972        H980   1.084       .  S
C981        C982   1.398       .  A
C981        C986   1.404       .  A
C981        H997   1.084       .  S
C982        C983   1.402       .  A
C982        H998   1.084       .  S
C983        C993   1.399       .  A
C983        C984   1.412       .  A
C984        C990   1.412       .  A
C984        C985   1.409       .  A
C985        C987   1.412       .  A
C985        C986   1.410       .  A
C986        C994   1.400       .  A
C987        C996   1.402       .  A
C987        C988   1.403       .  A
C988        C989   1.398       .  A
C988        H999   1.083       .  S
C989        C990   1.402       .  A
C989       H1000   1.084       .  S
C990        C991   1.400       .  A
C991        C992   1.403       .  A
C991       H1001   1.084       .  S
C992        C993   1.405       .  A
C993       H1002   1.084       .  S
C994        C995   1.408       .  A
C994       H1003   1.084       .  S
C995        C996   1.405       .  A
C996       H1004   1.084       .  S
C1005      C1006   1.399       .  A
C1005      C1010   1.403       .  A
C1005      H1021   1.084       .  S
C1006      C1007   1.404       .  A
C1006      H1022   1.084       .  S
C1007      C1017   1.402       .  A
C1007      C1008   1.412       .  A
C1008      C1014   1.412       .  A
C1008      C1009   1.410       .  A
C1009      C1011   1.411       .  A
C1009      C1010   1.411       .  A
C1010      C1018   1.401       .  A
C1011      C1020   1.401       .  A
C1011      C1012   1.403       .  A
C1012      C1013   1.398       .  A
C1012      H1023   1.084       .  S
C1013      C1014   1.403       .  A
C1013      H1024   1.084       .  S
C1014      C1015   1.401       .  A
C1015      C1016   1.403       .  A
C1015      H1025   1.085       .  S
C1016      C1017   1.404       .  A
C1017      H1026   1.085       .  S
C1018      C1019   1.407       .  A
C1018      H1027   1.084       .  S
C1019      C1020   1.406       .  A
C1020      H1028   1.084       .  S
C1029      C1030   1.400       .  A
C1029      C1034   1.404       .  A
C1029      H1045   1.084       .  S
C1030      C1031   1.404       .  A
C1030      H1046   1.084       .  S
C1031      C1041   1.405       .  A
C1031      C1032   1.412       .  A
C1032      C1038   1.413       .  A
C1032      C1033   1.412       .  A
C1033      C1035   1.411       .  A
C1033      C1034   1.413       .  A
C1034      C1042   1.405       .  A
C1035      C1044   1.400       .  A
C1035      C1036   1.403       .  A
C1036      C1037   1.398       .  A
C1036      H1047   1.084       .  S
C1037      C1038   1.403       .  A
C1037      H1048   1.084       .  S
C1038      C1039   1.403       .  A
C1039      C1040   1.402       .  A
C1039      H1049   1.085       .  S
C1040      C1041   1.404       .  A
C1041      H1050   1.085       .  S
C1042      C1043   1.405       .  A
C1042      H1051   1.084       .  S
C1043      C1044   1.407       .  A
C1044      H1052   1.084       .  S
C1053      C1054   1.397       .  A
C1053      C1058   1.403       .  A
C1053      H1069   1.084   1_655  S
C1054      C1055   1.402       .  A
C1054      H1070   1.084       .  S
C1055      C1065   1.400       .  A
C1055      C1056   1.413       .  A
C1056      C1062   1.412       .  A
C1056      C1057   1.410       .  A
C1057      C1059   1.411       .  A
C1057      C1058   1.410       .  A
C1058      C1066   1.398       .  A
C1059      C1068   1.405       .  A
C1059      C1060   1.404       .  A
C1060      C1061   1.401       .  A
C1060      H1071   1.083       .  S
C1061      C1062   1.404       .  A
C1061      H1072   1.084       .  S
C1062      C1063   1.403       .  A
C1063      C1064   1.405       .  A
C1063      H1073   1.085       .  S
C1064      C1065   1.401       .  A
C1065      H1074   1.085       .  S
C1066      C1067   1.407       .  A
C1066      H1075   1.083   1_655  S
C1067      C1068   1.409       .  A
C1068      H1076   1.084       .  S
C1077      C1078   1.401       .  A
C1077      C1082   1.404       .  A
C1077      H1093   1.084       .  S
C1078      C1079   1.405       .  A
C1078      H1094   1.084       .  S
C1079      C1089   1.406       .  A
C1079      C1080   1.412       .  A
C1080      C1086   1.413       .  A
C1080      C1081   1.412       .  A
C1081      C1083   1.411       .  A
C1081      C1082   1.413       .  A
C1082      C1090   1.406       .  A
C1083      C1092   1.399       .  A
C1083      C1084   1.402       .  A
C1084      C1085   1.397       .  A
C1084      H1095   1.084       .  S
C1085      C1086   1.403       .  A
C1085      H1096   1.083       .  S
C1086      C1087   1.403       .  A
C1087      C1088   1.401       .  A
C1087      H1097   1.085       .  S
C1088      C1089   1.406       .  A
C1089      H1098   1.085       .  S
C1090      C1091   1.406       .  A
C1090      H1099   1.084       .  S
C1091      C1092   1.405       .  A
C1092      H1100   1.085       .  S
C1101      C1102   1.398       .  A
C1101      C1106   1.403       .  A
C1101      H1117   1.084       .  S
C1102      C1103   1.403       .  A
C1102      H1118   1.084       .  S
C1103      C1113   1.401       .  A
C1103      C1104   1.411       .  A
C1104      C1110   1.413       .  A
C1104      C1105   1.414       .  A
C1105      C1107   1.412       .  A
C1105      C1106   1.412       .  A
C1106      C1114   1.402       .  A
C1107      C1116   1.407       .  A
C1107      C1108   1.405       .  A
C1108      C1109   1.402       .  A
C1108      H1119   1.083       .  S
C1109      C1110   1.404       .  A
C1109      H1120   1.083       .  S
C1110      C1111   1.408       .  A
C1111      C1112   1.407       .  A
C1111      H1121   1.084       .  S
C1112      C1113   1.407       .  A
C1113      H1122   1.085       .  S
C1114      C1115   1.405       .  A
C1114      H1123   1.084       .  S
C1115      C1116   1.406       .  A
C1116      H1124   1.084       .  S
C1125      C1126   1.398       .  A
C1125      C1130   1.403       .  A
C1125      H1141   1.084       .  S
C1126      C1127   1.403       .  A
C1126      H1142   1.083       .  S
C1127      C1137   1.403       .  A
C1127      C1128   1.412       .  A
C1128      C1134   1.411       .  A
C1128      C1129   1.411       .  A
C1129      C1131   1.412       .  A
C1129      C1130   1.412       .  A
C1130      C1138   1.402       .  A
C1131      C1140   1.401       .  A
C1131      C1132   1.403       .  A
C1132      C1133   1.399       .  A
C1132      H1143   1.084       .  S
C1133      C1134   1.404       .  A
C1133      H1144   1.084       .  S
C1134      C1135   1.402       .  A
C1135      C1136   1.407       .  A
C1135      H1145   1.084       .  S
C1136      C1137   1.405       .  A
C1137      H1146   1.084       .  S
C1138      C1139   1.404       .  A
C1138      H1147   1.084       .  S
C1139      C1140   1.406       .  A
C1140      H1148   1.084       .  S
C1149      C1150   1.401       .  A
C1149      C1154   1.403       .  A
C1149      H1165   1.084       .  S
C1150      C1151   1.405       .  A
C1150      H1166   1.083       .  S
C1151      C1161   1.402       .  A
C1151      C1152   1.408       .  A
C1152      C1158   1.414       .  A
C1152      C1153   1.413       .  A
C1153      C1155   1.407       .  A
C1153      C1154   1.415       .  A
C1154      C1162   1.409       .  A
C1155      C1164   1.398       .  A
C1155      C1156   1.405       .  A
C1156      C1157   1.399       .  A
C1156      H1167   1.084       .  S
C1157      C1158   1.403       .  A
C1157      H1168   1.084       .  S
C1158      C1159   1.407       .  A
C1159      C1160   1.406       .  A
C1159      H1169   1.083       .  S
C1160      C1161   1.412       .  A
C1161      H1170   1.084       .  S
C1162      C1163   1.406       .  A
C1162      H1171   1.084       .  S
C1163      C1164   1.413       .  A
C1164      H1172   1.084       .  S
C1173      C1174   1.398       .  A
C1173      C1178   1.403       .  A
C1173      H1189   1.084       .  S
C1174      C1175   1.403       .  A
C1174      H1190   1.083       .  S
C1175      C1185   1.400       .  A
C1175      C1176   1.412       .  A
C1176      C1182   1.413       .  A
C1176      C1177   1.409       .  A
C1177      C1179   1.409       .  A
C1177      C1178   1.412       .  A
C1178      C1186   1.402       .  A
C1179      C1188   1.397       .  A
C1179      C1180   1.403       .  A
C1180      C1181   1.397       .  A
C1180      H1191   1.084       .  S
C1181      C1182   1.402       .  A
C1181      H1192   1.084       .  S
C1182      C1183   1.399       .  A
C1183      C1184   1.401       .  A
C1183      H1193   1.085       .  S
C1184      C1185   1.403       .  A
C1185      H1194   1.084       .  S
C1186      C1187   1.405       .  A
C1186      H1195   1.084       .  S
C1187      C1188   1.409       .  A
C1188      H1196   1.084       .  S
C1197      C1198   1.402       .  A
C1197      C1202   1.404       .  A
C1197      H1213   1.083       .  S
C1198      C1199   1.405       .  A
C1198      H1214   1.083       .  S
C1199      C1209   1.405       .  A
C1199      C1200   1.409       .  A
C1200      C1206   1.413       .  A
C1200      C1201   1.413       .  A
C1201      C1203   1.407       .  A
C1201      C1202   1.415       .  A
C1202      C1210   1.413       .  A
C1203      C1212   1.396       .  A
C1203      C1204   1.404       .  A
C1204      C1205   1.396       .  A
C1204      H1215   1.084       .  S
C1205      C1206   1.402       .  A
C1205      H1216   1.084       .  S
C1206      C1207   1.401       .  A
C1207      C1208   1.405       .  A
C1207      H1217   1.084       .  S
C1208      C1209   1.410       .  A
C1209      H1218   1.084       .  S
C1210      C1211   1.408       .  A
C1210      H1219   1.084       .  S
C1211      C1212   1.411       .  A
C1212      H1220   1.084       .  S
C1221      C1222   1.402       .  A
C1221      C1226   1.406       .  A
C1221      H1237   1.084       .  S
C1222      C1223   1.405       .  A
C1222      H1238   1.084       .  S
C1223      C1233   1.411       .  A
C1223      C1224   1.413       .  A
C1224      C1230   1.408       .  A
C1224      C1225   1.416       .  A
C1225      C1227   1.413       .  A
C1225      C1226   1.409       .  A
C1226      C1234   1.406       .  A
C1227      C1236   1.408       .  A
C1227      C1228   1.403       .  A
C1228      C1229   1.400       .  A
C1228      H1239   1.083       .  S
C1229      C1230   1.404       .  A
C1229      H1240   1.083       .  S
C1230      C1231   1.403       .  A
C1231      C1232   1.411       .  A
C1231      H1241   1.084       .  S
C1232      C1233   1.411       .  A
C1233      H1242   1.083       .  S
C1234      C1235   1.413       .  A
C1234      H1243   1.084       .  S
C1235      C1236   1.407       .  A
C1236      H1244   1.084       .  S
C1245      C1246   1.400       .  A
C1245      C1250   1.404       .  A
C1245      H1261   1.083       .  S
C1246      C1247   1.403       .  A
C1246      H1262   1.083       .  S
C1247      C1257   1.403       .  A
C1247      C1248   1.412       .  A
C1248      C1254   1.412       .  A
C1248      C1249   1.408       .  A
C1249      C1251   1.409       .  A
C1249      C1250   1.413       .  A
C1250      C1258   1.406       .  A
C1251      C1260   1.394       .  A
C1251      C1252   1.403       .  A
C1252      C1253   1.395       .  A
C1252      H1263   1.084       .  S
C1253      C1254   1.401       .  A
C1253      H1264   1.084       .  S
C1254      C1255   1.395       .  A
C1255      C1256   1.402       .  A
C1255      H1265   1.085       .  S
C1256      C1257   1.403       .  A
C1257      H1266   1.084       .  S
C1258      C1259   1.405       .  A
C1258      H1267   1.084       .  S
C1259      C1260   1.408       .  A
C1260      H1268   1.085       .  S
C1269      C1270   1.396       .  A
C1269      C1274   1.402       .  A
C1269      H1285   1.084       .  S
C1270      C1271   1.402       .  A
C1270      H1286   1.084       .  S
C1271      C1281   1.397       .  A
C1271      C1272   1.411       .  A
C1272      C1278   1.413       .  A
C1272      C1273   1.410       .  A
C1273      C1275   1.411       .  A
C1273      C1274   1.412       .  A
C1274      C1282   1.398       .  A
C1275      C1284   1.404       .  A
C1275      C1276   1.405       .  A
C1276      C1277   1.401       .  A
C1276      H1287   1.084       .  S
C1277      C1278   1.404       .  A
C1277      H1288   1.084       .  S
C1278      C1279   1.405       .  A
C1279      C1280   1.405       .  A
C1279      H1289   1.084       .  S
C1280      C1281   1.403       .  A
C1281      H1290   1.085       .  S
C1282      C1283   1.403       .  A
C1282      H1291   1.084       .  S
C1283      C1284   1.408       .  A
C1284      H1292   1.083       .  S
C1293      C1294   1.396       .  A
C1293      C1298   1.402       .  A
C1293      H1309   1.084       .  S
C1294      C1295   1.402       .  A
C1294      H1310   1.084       .  S
C1295      C1305   1.399       .  A
C1295      C1296   1.412       .  A
C1296      C1302   1.412       .  A
C1296      C1297   1.411       .  A
C1297      C1299   1.413       .  A
C1297      C1298   1.410       .  A
C1298      C1306   1.396       .  A
C1299      C1308   1.408       .  A
C1299      C1300   1.404       .  A
C1300      C1301   1.402       .  A
C1300      H1311   1.083       .  S
C1301      C1302   1.405       .  A
C1301      H1312   1.083       .  S
C1302      C1303   1.407       .  A
C1303      C1304   1.405       .  A
C1303      H1313   1.084       .  S
C1304      C1305   1.401       .  A
C1305      H1314   1.085       .  S
C1306      C1307   1.404       .  A
C1306      H1315   1.085       .  S
C1307      C1308   1.406       .  A
C1308      H1316   1.084       .  S
C1317      C1318   1.402       .  A
C1317      C1322   1.404       .  A
C1317      H1333   1.083       .  S
C1318      C1319   1.405       .  A
C1318      H1334   1.083       .  S
C1319      C1329   1.406       .  A
C1319      C1320   1.409       .  A
C1320      C1326   1.414       .  A
C1320      C1321   1.417       .  A
C1321      C1323   1.409       .  A
C1321      C1322   1.414       .  A
C1322      C1330   1.412       .  A
C1323      C1332   1.404       .  A
C1323      C1324   1.405       .  A
C1324      C1325   1.401       .  A
C1324      H1335   1.084       .  S
C1325      C1326   1.404       .  A
C1325      H1336   1.083       .  S
C1326      C1327   1.411       .  A
C1327      C1328   1.409       .  A
C1327      H1337   1.084       .  S
C1328      C1329   1.412       .  A
C1329      H1338   1.084       .  S
C1330      C1331   1.408       .  A
C1330      H1339   1.084       .  S
C1331      C1332   1.410       .  A
C1332      H1340   1.084       .  S
C1341      C1342   1.405       .  A
C1341      C1346   1.406       .  A
C1341      H1357   1.083       .  S
C1342      C1343   1.406       .  A
C1342      H1358   1.083       .  S
C1343      C1353   1.418       .  A
C1343      C1344   1.416       .  A
C1344      C1350   1.406       .  A
C1344      C1345   1.415       .  A
C1345      C1347   1.414       .  A
C1345      C1346   1.409       .  A
C1346      C1354   1.409       .  A
C1347      C1356   1.402       .  A
C1347      C1348   1.401       .  A
C1348      C1349   1.396       .  A
C1348      H1359   1.084       .  S
C1349      C1350   1.404       .  A
C1349      H1360   1.084       .  S
C1350      C1351   1.396       .  A
C1351      C1352   1.411       .  A
C1351      H1361   1.084       .  S
C1352      C1353   1.411       .  A
C1353      H1362   1.084       .  S
C1354      C1355   1.411       .  A
C1354      H1363   1.084       .  S
C1355      C1356   1.404       .  A
C1356      H1364   1.084       .  S
C1365      C1366   1.394       .  A
C1365      C1370   1.402       .  A
C1365      H1381   1.084       .  S
C1366      C1367   1.401       .  A
C1366      H1382   1.084       .  S
C1367      C1377   1.397       .  A
C1367      C1368   1.413       .  A
C1368      C1374   1.412       .  A
C1368      C1369   1.410       .  A
C1369      C1371   1.413       .  A
C1369      C1370   1.410       .  A
C1370      C1378   1.395       .  A
C1371      C1380   1.409       .  A
C1371      C1372   1.405       .  A
C1372      C1373   1.402       .  A
C1372      H1383   1.084       .  S
C1373      C1374   1.405       .  A
C1373      H1384   1.083       .  S
C1374      C1375   1.406       .  A
C1375      C1376   1.406       .  A
C1375      H1385   1.084       .  S
C1376      C1377   1.400       .  A
C1377      H1386   1.085       .  S
C1378      C1379   1.405       .  A
C1378      H1387   1.085       .  S
C1379      C1380   1.407       .  A
C1380      H1388   1.084       .  S
C1389      C1390   1.397       .  A
C1389      C1394   1.402       .  A
C1389      H1405   1.083       .  S
C1390      C1391   1.403       .  A
C1390      H1406   1.084       .  S
C1391      C1401   1.398       .  A
C1391      C1392   1.408       .  A
C1392      C1398   1.415       .  A
C1392      C1393   1.414       .  A
C1393      C1395   1.407       .  A
C1393      C1394   1.413       .  A
C1394      C1402   1.405       .  A
C1395      C1404   1.405       .  A
C1395      C1396   1.406       .  A
C1396      C1397   1.403       .  A
C1396      H1407   1.084       .  S
C1397      C1398   1.404       .  A
C1397      H1408   1.084       .  S
C1398      C1399   1.411       .  A
C1399      C1400   1.408       .  A
C1399      H1409   1.084       .  S
C1400      C1401   1.408       .  A
C1401      H1410   1.085       .  S
C1402      C1403   1.407       .  A
C1402      H1411   1.082       .  S
C1403      C1404   1.416       .  A
C1404      H1412   1.084       .  S
C1413      C1414   1.400       .  A
C1413      C1418   1.404       .  A
C1413      H1429   1.084       .  S
C1414      C1415   1.405       .  A
C1414      H1430   1.084       .  S
C1415      C1425   1.402       .  A
C1415      C1416   1.410       .  A
C1416      C1422   1.413       .  A
C1416      C1417   1.411       .  A
C1417      C1419   1.409       .  A
C1417      C1418   1.414       .  A
C1418      C1426   1.407       .  A
C1419      C1428   1.397       .  A
C1419      C1420   1.403       .  A
C1420      C1421   1.397       .  A
C1420      H1431   1.084       .  S
C1421      C1422   1.402       .  A
C1421      H1432   1.084       .  S
C1422      C1423   1.401       .  A
C1423      C1424   1.404       .  A
C1423      H1433   1.084       .  S
C1424      C1425   1.409       .  A
C1425      H1434   1.084       .  S
C1426      C1427   1.406       .  A
C1426      H1435   1.084       .  S
C1427      C1428   1.407       .  A
C1428      H1436   1.084       .  S
