geometry optimzed in LAMMPS
_audit_creation_date              2020-11-30 
_audit_creation_method            'lammps2cif' 
_symmetry_space_group_name_H-M    'P1' 
_symmetry_Int_Tables_number       1 
_symmetry_cell_setting            triclinic 
loop_ 
_symmetry_equiv_pos_as_xyz 
  x,y,z 
_cell_length_a                    52.59379779 
_cell_length_b                    52.604017640649275 
_cell_length_c                    52.55905086965827 
_cell_angle_alpha                 90.03470282580969 
_cell_angle_beta                  89.92067660158158 
_cell_angle_gamma                 90.0016053900842 
loop_ 
_atom_site_label 
_atom_site_type_symbol 
_atom_site_fract_x 
_atom_site_fract_y 
_atom_site_fract_z 
_atom_site_charge 
C1          C  0.23894005  0.85516340  0.01689123     0.80100
N2          N  0.23825602  0.84219882  0.99449584    -0.78200
C3          C  0.24227620  0.85441934  0.97204917     0.82600
N4          N  0.24668396  0.87986563  0.97214657    -0.78100
C5          C  0.24755994  0.89305788  0.99431131     0.82600
N6          N  0.24375835  0.88055987  0.01659404    -0.79900
C7          C  0.62944377  0.11725042  0.01951518     0.80100
N8          N  0.62234448  0.09249118  0.01930784    -0.78200
C9          C  0.61864957  0.07995544  0.99702410     0.82600
N10         N  0.62172936  0.09279554  0.97476684    -0.78100
C11         C  0.62879525  0.11768913  0.97472844     0.82600
N12         N  0.63303023  0.12970241  0.99721726    -0.79900
C13         C  0.79102241  0.99976594  0.31456292     0.80100
N14         N  0.77926448  0.97700592  0.31152212    -0.78200
C15         C  0.79260864  0.95503153  0.31410289     0.82600
N16         N  0.81796350  0.95608048  0.31899820    -0.78100
C17         C  0.82990038  0.97879435  0.32196378     0.82600
N18         N  0.81625961  0.00051537  0.31960184    -0.79900
C19         C  0.07339938  0.00673600  0.68846583     0.80100
N20         N  0.08505866  0.98367425  0.68685393    -0.78200
C21         C  0.07125083  0.96233249  0.68178096     0.82600
N22         N  0.04573917  0.96439630  0.67830984    -0.78100
C23         C  0.03399506  0.98722381  0.68012447     0.82600
N24         N  0.04781894  0.00827084  0.68548759    -0.79900
C25         C  0.95341415  0.68189743  0.13518252     0.80100
N26         N  0.95499744  0.67885448  0.10957745    -0.78200
C27         C  0.93399847  0.67371546  0.09562041     0.82600
N28         N  0.91109818  0.67177209  0.10728504    -0.78100
C29         C  0.90898276  0.67521578  0.13280588     0.82600
N30         N  0.93028049  0.68010890  0.14672981    -0.79900
C31         C  0.91041973  0.30123124  0.86265703     0.80100
N32         N  0.91005474  0.30580915  0.88806894    -0.78200
C33         C  0.93201808  0.30589692  0.90155774     0.82600
N34         N  0.95441928  0.30166552  0.88947523    -0.78100
C35         C  0.95507937  0.29728717  0.86404463     0.82600
N36         N  0.93293366  0.29670147  0.85083216    -0.79900
C37         C  0.61633952  0.85274138  0.98054030     0.80100
N38         N  0.61184556  0.87807017  0.98255343    -0.78200
C39         C  0.61170176  0.88979904  0.00555814     0.82600
N40         N  0.61633129  0.87596775  0.02687894    -0.78100
C41         C  0.62087700  0.85057994  0.02524108     0.82600
N42         N  0.62079718  0.83915257  0.00206770    -0.79900
C43         C  0.23895103  0.12283956  0.02551870     0.80100
N44         N  0.23851554  0.13538174  0.00287936    -0.78200
C45         C  0.24216330  0.12274290  0.98059141     0.82600
N46         N  0.24648282  0.09732095  0.98110592    -0.78100
C47         C  0.24690551  0.08435277  0.00341211     0.82600
N48         N  0.24309404  0.09726758  0.02552333    -0.79900
C49         C  0.80484412  0.01216530  0.69043811     0.80100
N50         N  0.83025866  0.01254707  0.68547526    -0.78200
C51         C  0.84336888  0.99039876  0.68274164     0.82600
N52         N  0.83084975  0.96796759  0.68498646    -0.78100
C53         C  0.80550997  0.96730180  0.68962730     0.82600
N54         N  0.79270465  0.98949227  0.69251212    -0.79900
C55         C  0.06000331  0.97073865  0.31258996     0.80100
N56         N  0.07165430  0.99377222  0.31210158    -0.78200
C57         C  0.05810590  0.01559983  0.31503235     0.82600
N58         N  0.03252345  0.01418165  0.31831739    -0.78100
C59         C  0.02070154  0.99126423  0.31936258     0.82600
N60         N  0.03450119  0.96969691  0.31635963    -0.79900
C61         C  0.91074712  0.67528902  0.86704089     0.80100
N62         N  0.93283061  0.67462457  0.85366722    -0.78200
C63         C  0.95532419  0.67028130  0.86552898     0.82600
N64         N  0.95569308  0.66687442  0.89110813    -0.78100
C65         C  0.93379298  0.66737950  0.90478353     0.82600
N66         N  0.91138419  0.67170267  0.89263491    -0.79900
C67         C  0.91013848  0.30256335  0.13046422     0.80100
N68         N  0.90899508  0.30796018  0.10528085    -0.78200
C69         C  0.93037876  0.31293777  0.09177957     0.82600
N70         N  0.95327098  0.31217847  0.10362816    -0.78100
C71         C  0.95481624  0.30681141  0.12886607     0.82600
N72         N  0.93313515  0.30212996  0.14224306    -0.79900
C73         C  0.30243665  0.50941712  0.80826293     0.80100
N74         N  0.32778700  0.50970813  0.81302110    -0.78200
C75         C  0.34098211  0.48767804  0.81589764     0.82600
N76         N  0.32842785  0.46522091  0.81344666    -0.78100
C77         C  0.30306356  0.46466346  0.80867320     0.82600
N78         N  0.29024522  0.48685691  0.80595478    -0.79900
C79         C  0.29600527  0.47014703  0.19942400     0.80100
N80         N  0.32111190  0.46995543  0.19325081    -0.78200
C81         C  0.33435749  0.49198247  0.19057931     0.82600
N82         N  0.32211123  0.51447007  0.19400503    -0.78100
C83         C  0.29698506  0.51504432  0.20000702     0.82600
N84         N  0.28415677  0.49282639  0.20281315    -0.79900
C85         C  0.11295941  0.35625135  0.52913269     0.80100
N86         N  0.10800046  0.38153694  0.52715033    -0.78200
C87         C  0.10649405  0.39284846  0.50399094     0.82600
N88         N  0.11049315  0.37873244  0.48276402    -0.78100
C89         C  0.11572074  0.35348890  0.48425747     0.82600
N90         N  0.11705704  0.34242740  0.50759692    -0.79900
O91         O  0.18555608  0.27205075  0.69937060    -0.78600
C92         C  0.21428632  0.30008872  0.76880495     0.82400
O93         O  0.23528624  0.20201420  0.73478795    -0.79700
O94         O  0.19597882  0.23297105  0.81344082    -0.81200
O95         O  0.12270593  0.24499587  0.75951072    -0.81000
O96         O  0.14757911  0.25399206  0.70248351    -0.79600
Zn97       Zn  0.20578114  0.25899752  0.72894890     1.55700
O98         O  0.14339865  0.26172935  0.79243497    -0.81000
Cd99       Cd  0.15109016  0.23276090  0.73530004     1.59700
Cd100      Cd  0.20182231  0.20384703  0.75578293     1.59600
O101        O  0.14472447  0.19489317  0.72683867    -0.81000
O102        O  0.18525995  0.23776672  0.75094011    -1.91500
Cd103      Cd  0.18118357  0.25505046  0.78452229     1.59900
O104        O  0.17836804  0.17472059  0.74252857    -0.81000
O105        O  0.19977516  0.28961201  0.78512266    -0.79600
C106        C  0.24563184  0.21790930  0.71965744     0.82900
C107        C  0.16305046  0.26880507  0.69114932     0.82600
O108        O  0.21867830  0.28984667  0.74730154    -0.78600
C109        C  0.12279635  0.25645680  0.78087915     0.83400
O110        O  0.23590752  0.23974205  0.71576593    -0.78700
C111        C  0.15692815  0.17440649  0.73111155     0.83500
C112        C  0.20677491  0.21130807  0.81428931     0.83800
O113        O  0.21035913  0.19813728  0.79413932    -0.81100
C114        C  0.73687821  0.35633021  0.51791055     0.80100
N115        N  0.73654582  0.34424259  0.49511930    -0.78200
C116        C  0.74036396  0.35718800  0.47309780     0.82600
N117        N  0.74421007  0.38275527  0.47407065    -0.78100
C118        C  0.74487104  0.39511329  0.49680500     0.82600
N119        N  0.74114103  0.38176279  0.51859371    -0.79900
C120        C  0.41113893  0.18405587  0.62804624     0.80100
N121        N  0.41153299  0.18034040  0.60247263    -0.78200
C122        C  0.43389367  0.17784860  0.58981383     0.82600
N123        N  0.45604006  0.17883062  0.60298826    -0.78100
C124        C  0.45611375  0.18206720  0.62862052     0.82600
N125        N  0.43351014  0.18479754  0.64097793    -0.79900
O126        O  0.65004843  0.29187709  0.74467467    -0.78600
C127        C  0.70105008  0.26777410  0.68467866     0.82400
O128        O  0.63337824  0.20184910  0.73207094    -0.79700
O129        O  0.72668387  0.19853847  0.72474776    -0.81200
O130        O  0.72388354  0.26468197  0.78871976    -0.81000
O131        O  0.66532367  0.28917434  0.78383249    -0.79600
Zn132      Zn  0.66111122  0.26013470  0.72624488     1.55700
O133        O  0.74458942  0.25215612  0.75394741    -0.81000
Cd134      Cd  0.68617875  0.25561133  0.78160239     1.59700
Cd135      Cd  0.66803490  0.20430772  0.75082555     1.59600
O136        O  0.67383418  0.23097606  0.80983688    -0.81000
O137        O  0.68284144  0.23925007  0.74730331    -1.91500
Cd138      Cd  0.71704452  0.23625577  0.73103068     1.59900
O139        O  0.66250442  0.19580975  0.78892302    -0.81000
O140        O  0.71789139  0.25502466  0.69648316    -0.79600
C141        C  0.62109597  0.21848210  0.71940981     0.82900
C142        C  0.65253075  0.30100838  0.76696692     0.82600
O143        O  0.67892868  0.27087844  0.69409276    -0.78600
C144        C  0.74440465  0.26230363  0.77594680     0.83400
O145        O  0.62981059  0.24083261  0.71617484    -0.78700
C146        C  0.66541938  0.20822273  0.80957821     0.83500
C147        C  0.71480242  0.17756610  0.72737640     0.83800
O148        O  0.69218347  0.17673358  0.73611425    -0.81100
C149        C  0.11347242  0.61975785  0.51822531     0.80100
N150        N  0.11811862  0.63284093  0.49652450    -0.78200
C151        C  0.11551886  0.62163998  0.47346386     0.82600
N152        N  0.10868053  0.59673175  0.47211139    -0.78100
C153        C  0.10399830  0.58329579  0.49376341     0.82600
N154        N  0.10656574  0.59493826  0.51674114    -0.79900
O155        O  0.17578229  0.76807687  0.79819577    -0.78600
C156        C  0.14877606  0.79323813  0.72451590     0.82400
O157        O  0.13145642  0.69543673  0.76310911    -0.79700
O158        O  0.16905913  0.72409664  0.68383362    -0.81200
O159        O  0.24119923  0.74493669  0.73982882    -0.81000
O160        O  0.21417016  0.75076970  0.79678755    -0.79600
Zn161      Zn  0.15717534  0.75447045  0.76719677     1.55700
O162        O  0.22117348  0.75599286  0.70417884    -0.81000
Cd163      Cd  0.21309003  0.73080195  0.76306681     1.59700
Cd164      Cd  0.16479364  0.69833110  0.74279587     1.59600
O165        O  0.22234919  0.69363905  0.77076959    -0.81000
O166        O  0.17918029  0.73327201  0.74639533    -1.91500
Cd167      Cd  0.18324065  0.74817329  0.71166795     1.59900
O168        O  0.18937013  0.67126377  0.75679176    -0.81000
O169        O  0.16326694  0.78168980  0.70889410    -0.79600
C170        C  0.11930822  0.71130281  0.77680486     0.82900
C171        C  0.19779289  0.76482264  0.80779686     0.82600
O172        O  0.14458298  0.78452342  0.74677578    -0.78600
C173        C  0.24144235  0.75387914  0.71732040     0.83400
O174        O  0.12709706  0.73407975  0.77981692    -0.78700
C175        C  0.21120952  0.67247384  0.76716864     0.83500
C176        C  0.15995497  0.70165329  0.68449147     0.83800
O177        O  0.15749333  0.68929743  0.70518461    -0.81100
C178        C  0.57031039  0.51480796  0.80706046     0.80100
N179        N  0.54477919  0.51459845  0.81062530    -0.78200
C180        C  0.53216610  0.49233716  0.81346291     0.82600
N181        N  0.54512866  0.47007426  0.81241352    -0.78100
C182        C  0.57070736  0.46996664  0.80864799     0.82600
N183        N  0.58321973  0.49245676  0.80596999    -0.79900
C184        C  0.40943852  0.79368975  0.63318632     0.80100
N185        N  0.43220432  0.79305924  0.64550741    -0.78200
C186        C  0.45432554  0.79621024  0.63237845     0.82600
N187        N  0.45351000  0.79976179  0.60678965    -0.78100
C188        C  0.43097926  0.80030861  0.59427976     0.82600
N189        N  0.40908935  0.79721858  0.60758012    -0.79900
C190        C  0.74568599  0.62382472  0.47995135     0.80100
N191        N  0.74886464  0.59826919  0.48112153    -0.78200
C192        C  0.75052794  0.58618315  0.50383411     0.82600
N193        N  0.74862998  0.59983742  0.52570229    -0.78100
C194        C  0.74568943  0.62551816  0.52484431     0.82600
N195        N  0.74395085  0.63729795  0.50192300    -0.79900
O196        O  0.71888350  0.79516695  0.75604860    -0.78600
C197        C  0.66206914  0.77303690  0.81198713     0.82400
O198        O  0.73388829  0.70710960  0.76662887    -0.79700
O199        O  0.64277412  0.70194822  0.77437834    -0.81200
O200        O  0.64321133  0.76851441  0.70798825    -0.81000
O201        O  0.70192623  0.79420951  0.71719800    -0.79600
Zn202      Zn  0.70529544  0.76415916  0.77403511     1.55700
O203        O  0.62172917  0.75116685  0.74019641    -0.81000
Cd204      Cd  0.68105104  0.76114149  0.71726065     1.59700
Cd205      Cd  0.70035036  0.71017971  0.74650766     1.59600
O206        O  0.69600182  0.73853396  0.68861665    -0.81000
O207        O  0.68424841  0.74416801  0.75116556    -1.91500
Cd208      Cd  0.64945638  0.73974798  0.76581758     1.59900
O209        O  0.70794672  0.70324227  0.70878961    -0.81000
O210        O  0.64577139  0.76047086  0.79916361    -0.79600
C211        C  0.74471311  0.72203544  0.78230066     0.82900
C212        C  0.71622516  0.80448169  0.73383189     0.82600
O213        O  0.68491814  0.77563577  0.80433731    -0.78600
C214        C  0.62228306  0.76233586  0.71866420     0.83400
O215        O  0.73552502  0.74399240  0.78697941    -0.78700
C216        C  0.70542675  0.71621780  0.68850838     0.83500
C217        C  0.65517535  0.68155558  0.77015555     0.83800
O218        O  0.67680883  0.68169571  0.75925780    -0.81100
C219        C  0.40965981  0.18070332  0.36038246     0.80100
N220        N  0.40982315  0.17765654  0.38601377    -0.78200
C221        C  0.43167492  0.17251827  0.39859884     0.82600
N222        N  0.45375140  0.17072283  0.38534106    -0.78100
C223        C  0.45414356  0.17381778  0.35963589     0.82600
N224        N  0.43193679  0.17884822  0.34735006    -0.79900
O225        O  0.65300797  0.28159546  0.25039317    -0.78600
C226        C  0.62358520  0.21036386  0.27758168     0.82400
O227        O  0.72131312  0.24888109  0.29956180    -0.79700
O228        O  0.69310177  0.16891698  0.26307762    -0.81200
O229        O  0.67811422  0.22065962  0.18744068    -0.81000
O230        O  0.67043527  0.27916409  0.21195095    -0.79600
Zn231      Zn  0.66411604  0.25123892  0.27013114     1.55700
O232        O  0.66638754  0.18574077  0.20849768    -0.81000
Cd233      Cd  0.69057798  0.24549435  0.21522594     1.59700
Cd234      Cd  0.72020066  0.22720158  0.26657130     1.59600
O235        O  0.72846009  0.25349847  0.20827717    -0.81000
O236        O  0.68621086  0.23017755  0.24974513    -1.91500
Cd237      Cd  0.67046823  0.19584524  0.24628447     1.59900
O238        O  0.74880087  0.24035169  0.24292167    -0.81000
O239        O  0.63527277  0.19416735  0.26383810    -0.79600
C240        C  0.70441731  0.26265537  0.31023717     0.82900
C241        C  0.65660265  0.29062573  0.22822837     0.82600
O242        O  0.63275602  0.23242940  0.28145312    -0.78600
C243        C  0.66978089  0.19790071  0.18781347     0.83400
O244        O  0.68219238  0.26455577  0.30091236    -0.78700
C245        C  0.74895317  0.25029470  0.22082954     0.83500
C246        C  0.71520328  0.16920933  0.27290990     0.83800
O247        O  0.72804527  0.18962879  0.27536326    -0.81100
C248        C  0.45529050  0.80157545  0.36425651     0.80100
N249        N  0.45516843  0.80447372  0.38997055    -0.78200
C250        C  0.43294093  0.80715598  0.40292486     0.82600
N251        N  0.41060312  0.80643887  0.39002367    -0.78100
C252        C  0.41040275  0.80361882  0.36433416     0.82600
N253        N  0.43276222  0.80113602  0.35169407    -0.79900
C254        C  0.56297513  0.49873210  0.19619598     0.80100
N255        N  0.57533152  0.47635294  0.19925217    -0.78200
C256        C  0.56266132  0.45398642  0.19764363     0.82600
N257        N  0.53726056  0.45407854  0.19292274    -0.78100
C258        C  0.52453940  0.47635367  0.18980610     0.82600
N259        N  0.53759145  0.49861123  0.19152733    -0.79900
O260        O  0.67709429  0.69734758  0.30231702    -0.78600
C261        C  0.61924260  0.75053153  0.27824598     0.82400
O262        O  0.66260521  0.67633730  0.21482769    -0.79700
O263        O  0.65548969  0.76673224  0.20513176    -0.81200
O264        O  0.72149272  0.76944062  0.27080905    -0.81000
O265        O  0.71604877  0.71301560  0.29815146    -0.79600
Zn266      Zn  0.65797528  0.70779311  0.27095778     1.55700
O267        O  0.68861623  0.79022819  0.25391589    -0.81000
Cd268      Cd  0.71399878  0.73162097  0.26377383     1.59700
Cd269      Cd  0.68352647  0.70952664  0.21493971     1.59600
O270        O  0.74220494  0.71729709  0.24029039    -0.81000
O271        O  0.67966680  0.72729290  0.24835480    -1.91500
Cd272      Cd  0.66423240  0.76143611  0.24279428     1.59900
O273        O  0.72107403  0.69987088  0.20793396    -0.81000
O274        O  0.63115404  0.76548542  0.26340611    -0.79600
C275        C  0.64907933  0.66571354  0.23193039     0.82900
C276        C  0.69952167  0.70059746  0.31078496     0.82600
O277        O  0.62723147  0.72802448  0.28240402    -0.78600
C278        C  0.70996913  0.79001037  0.26533280     0.83400
O279        O  0.64610717  0.67590026  0.25370525    -0.78700
C280        C  0.74178610  0.70486705  0.21945870     0.83500
C281        C  0.65997765  0.75404850  0.18499684     0.83800
O282        O  0.67106563  0.73248980  0.18540381    -0.81100
O283        O  0.12768012  0.74636031  0.21891600    -0.78600
C284        C  0.15086336  0.80698601  0.27034743     0.82400
O285        O  0.21544629  0.76124979  0.19871729    -0.79700
O286        O  0.22408641  0.77083946  0.29045607    -0.81200
O287        O  0.15923038  0.70515509  0.29354718    -0.81000
O288        O  0.13187897  0.70806271  0.23609406    -0.79600
Zn289      Zn  0.15880865  0.76652534  0.22910971     1.55700
O290        O  0.17375074  0.73932689  0.31372764    -0.81000
Cd291      Cd  0.16587998  0.71176080  0.25554125     1.59700
Cd292      Cd  0.21480451  0.74184761  0.23296278     1.59600
O293        O  0.19043997  0.68347621  0.24405594    -0.81000
O294        O  0.18115986  0.74603316  0.25020919    -1.91500
Cd295      Cd  0.18605461  0.76258339  0.28421362     1.59900
O296        O  0.22321314  0.70383960  0.22642974    -0.81000
O297        O  0.16545171  0.79587896  0.28613375    -0.79600
C298        C  0.19885614  0.77481681  0.18742091     0.82900
C299        C  0.11937484  0.72388200  0.22269854     0.82600
O300        O  0.14693918  0.79770297  0.24826700    -0.78600
C301        C  0.16364848  0.71730778  0.31404285     0.83400
O302        O  0.17679805  0.77818750  0.19699455    -0.78700
C303        C  0.21197161  0.68338188  0.23295957     0.83500
C304        C  0.24421724  0.76642496  0.27763052     0.83800
O305        O  0.24354631  0.75585714  0.25580992    -0.81100
O306        O  0.20966694  0.29458676  0.25764853    -0.78600
C307        C  0.15666643  0.26994214  0.31596546     0.82400
O308        O  0.22662550  0.20517481  0.26958720    -0.79700
O309        O  0.13289166  0.20243988  0.27622911    -0.81200
O310        O  0.13868620  0.26747899  0.20979456    -0.81000
O311        O  0.19762622  0.28961851  0.21749368    -0.79600
Zn312      Zn  0.19842763  0.26262580  0.27585887     1.55700
O313        O  0.11524688  0.25359606  0.24234905    -0.81000
Cd314      Cd  0.17550407  0.25722571  0.21907372     1.59700
Cd315      Cd  0.19220049  0.20693542  0.25089960     1.59600
O316        O  0.18756817  0.23181500  0.19141484    -0.81000
O317        O  0.17726814  0.24182329  0.25374983    -1.91500
Cd318      Cd  0.14202686  0.23970059  0.26799607     1.59900
O319        O  0.19925756  0.19725911  0.21308682    -0.81000
O320        O  0.13975523  0.25905475  0.30241249    -0.79600
C321        C  0.23914882  0.22158331  0.28221059     0.82900
C322        C  0.20899395  0.30236924  0.23466349     0.82600
O323        O  0.17955774  0.27207628  0.30816785    -0.78600
C324        C  0.11722627  0.26414908  0.22056451     0.83400
O325        O  0.23045361  0.24391958  0.28581798    -0.78700
C326        C  0.19628939  0.20921889  0.19218531     0.83500
C327        C  0.14527415  0.18162012  0.27570206     0.83800
O328        O  0.16797007  0.18034217  0.26716887    -0.81100
C329        C  0.57701124  0.52289877  0.19932195    -0.20000
C330        C  0.56984576  0.54530088  0.18633193     0.36200
C331        C  0.58312690  0.56797084  0.19107184    -0.26000
C332        C  0.60334998  0.56857783  0.20835876     0.02700
C333        C  0.61103736  0.54620235  0.22076283     0.27500
C334        C  0.59782802  0.52353641  0.21608141    -0.25100
N335        N  0.54927871  0.54496709  0.16834746    -0.82500
H336        H  0.57749912  0.58535273  0.18155802     0.13300
C337        C  0.61550184  0.59310261  0.21427952     0.02600
N338        N  0.63199405  0.54674920  0.23829609    -0.81000
H339        H  0.60347007  0.50641982  0.22604393     0.18100
C340        C  0.61056590  0.60444649  0.23782794    -0.25900
C341        C  0.62084145  0.62826055  0.24405027     0.36200
C342        C  0.63687605  0.64081085  0.22629612    -0.19900
C343        C  0.64187853  0.62903396  0.20271651    -0.25200
C344        C  0.63136418  0.60529902  0.19657534     0.27500
H345        H  0.59821479  0.59480055  0.25123516     0.13300
N346        N  0.61485193  0.63958479  0.26824026    -0.82400
H347        H  0.65418491  0.63824397  0.18899353     0.18100
N348        N  0.63677627  0.59343735  0.17251869    -0.81000
H349        H  0.60396961  0.62720836  0.27937255     0.33800
H350        H  0.60335217  0.65540983  0.26471888     0.38300
H351        H  0.64872773  0.60495047  0.16155689     0.33700
H352        H  0.64684905  0.57670213  0.17619539     0.30400
H353        H  0.63511588  0.52870166  0.24600972     0.33700
H354        H  0.64833995  0.55142676  0.22796455     0.30400
H355        H  0.55472109  0.53324234  0.15322144     0.38300
H356        H  0.54635385  0.56307771  0.16070130     0.33800
C357        C  0.38601931  0.80050203  0.35063171    -0.20000
C358        C  0.38281707  0.80865361  0.32518199     0.36200
C359        C  0.35959637  0.80403772  0.31275571    -0.26000
C360        C  0.33975379  0.79136902  0.32521713     0.02700
C361        C  0.34304513  0.78279731  0.35035992     0.27500
C362        C  0.36601322  0.78777759  0.36294083    -0.25100
N363        N  0.40300310  0.82167319  0.31211855    -0.82500
H364        H  0.35693010  0.81025513  0.29328625     0.13300
C365        C  0.31577075  0.78634595  0.31157787     0.02600
N366        N  0.32341972  0.76819728  0.36262266    -0.81000
H367        H  0.36858860  0.78095689  0.38221352     0.18100
C368        C  0.31388569  0.76447592  0.29653379    -0.25900
C369        C  0.29076865  0.75772994  0.28502028     0.36200
C370        C  0.26916428  0.77334683  0.28862281    -0.19900
C371        C  0.27129969  0.79554738  0.30334494    -0.25200
C372        C  0.29452453  0.80235348  0.31466868     0.27500
H373        H  0.33037643  0.75230927  0.29433837     0.13300
N374        N  0.28897761  0.73468670  0.27039234    -0.82400
H375        H  0.25483489  0.80767614  0.30588045     0.18100
N376        N  0.29677144  0.82560562  0.32890440    -0.81000
H377        H  0.30662861  0.72558578  0.26940667     0.33800
H378        H  0.27676704  0.72235715  0.28010767     0.38300
H379        H  0.27950516  0.83546147  0.32892295     0.33700
H380        H  0.30058730  0.82096845  0.34783372     0.30400
H381        H  0.32918254  0.76259653  0.38080551     0.33700
H382        H  0.30761623  0.77995612  0.36513781     0.30400
H383        H  0.40599341  0.83897993  0.32143248     0.38300
H384        H  0.39766251  0.82604381  0.29347219     0.33800
C385        C  0.47969337  0.79683229  0.35053597    -0.20000
C386        C  0.48046953  0.78603592  0.32576407     0.36200
C387        C  0.50396909  0.77931996  0.31504525    -0.26000
C388        C  0.52671194  0.78345688  0.32809228     0.02700
C389        C  0.52630211  0.79497723  0.35224460     0.27500
C390        C  0.50281741  0.80158842  0.36322125    -0.25100
N391        N  0.45755577  0.78125795  0.31167601    -0.82500
H392        H  0.50462005  0.77068063  0.29632694     0.13300
C393        C  0.55072318  0.77500750  0.31617800     0.02600
N394        N  0.54967802  0.79944939  0.36567378    -0.81000
H395        H  0.50262279  0.81006818  0.38200657     0.18100
C396        C  0.56753361  0.79312843  0.30637892    -0.25900
C397        C  0.58996927  0.78574106  0.29383863     0.36200
C398        C  0.59568344  0.75950673  0.29113499    -0.19900
C399        C  0.57865659  0.74144929  0.30113762    -0.25200
C400        C  0.55621442  0.74895500  0.31354956     0.27500
H401        H  0.56298144  0.81312537  0.30838030     0.13300
N402        N  0.60691110  0.80483886  0.28403728    -0.82400
H403        H  0.58272054  0.72136199  0.29908355     0.18100
N404        N  0.53882352  0.73027847  0.32337463    -0.81000
H405        H  0.59942175  0.82303468  0.28688301     0.33800
H406        H  0.62369461  0.80395464  0.29463613     0.38300
H407        H  0.54548309  0.71191124  0.31967757     0.33700
H408        H  0.53831956  0.73230935  0.34315522     0.30400
H409        H  0.54610361  0.80815740  0.38320477     0.33700
H410        H  0.55779660  0.78175307  0.36967141     0.30400
H411        H  0.45050780  0.79889639  0.30586679     0.38300
H412        H  0.46147584  0.77117882  0.29497235     0.33800
C413        C  0.64459105  0.31527849  0.22192963    -0.20000
C414        C  0.63879950  0.32254555  0.19667450     0.36200
C415        C  0.62678524  0.34602399  0.19229555    -0.26000
C416        C  0.62009690  0.36193383  0.21261630     0.02700
C417        C  0.62619955  0.35496533  0.23768092     0.27500
C418        C  0.63838448  0.33174737  0.24208790    -0.25100
N419        N  0.64434774  0.30586308  0.17571527    -0.82500
H420        H  0.62184228  0.35160377  0.17308243     0.13300
C421        C  0.60541425  0.38527182  0.20772432     0.02600
N422        N  0.61973961  0.37145654  0.25854746    -0.81000
H423        H  0.64303630  0.32649486  0.26146203     0.18100
C424        C  0.58009428  0.38637349  0.21592498    -0.25900
C425        C  0.56565809  0.40857608  0.21291789     0.36200
C426        C  0.57675428  0.42992185  0.20097731    -0.19900
C427        C  0.60217512  0.42866528  0.19271170    -0.25200
C428        C  0.61667043  0.40653284  0.19607398     0.27500
H429        H  0.57176408  0.36993165  0.22514961     0.13300
N430        N  0.54014317  0.40971856  0.22266230    -0.82400
H431        H  0.61079174  0.44504303  0.18365137     0.18100
N432        N  0.64279233  0.40561464  0.18802637    -0.81000
H433        H  0.53486923  0.39231377  0.23069598     0.33800
H434        H  0.53991285  0.42305525  0.23741773     0.38300
H435        H  0.64814584  0.42285401  0.17970037     0.33700
H436        H  0.65400320  0.40346055  0.20429946     0.30400
H437        H  0.62531377  0.36341860  0.27585250     0.33700
H438        H  0.63022083  0.38821343  0.25641240     0.30400
H439        H  0.63297028  0.28969154  0.17778574     0.38300
H440        H  0.63910350  0.31426762  0.15847687     0.33800
C441        C  0.47901653  0.17408042  0.34583160    -0.20000
C442        C  0.48092994  0.17788707  0.31915878     0.36200
C443        C  0.50495189  0.18192995  0.30807618    -0.26000
C444        C  0.52716121  0.18139921  0.32274986     0.02700
C445        C  0.52554738  0.17558256  0.34884730     0.27500
C446        C  0.50159210  0.17214833  0.36011280    -0.25100
N447        N  0.45865053  0.17800776  0.30336734    -0.82500
H448        H  0.50633689  0.18609815  0.28793345     0.13300
C449        C  0.55183898  0.18840532  0.31093781     0.02600
N450        N  0.54828946  0.17360616  0.36387963    -0.81000
H451        H  0.50068077  0.16855906  0.38037642     0.18100
C452        C  0.56552075  0.20890648  0.32107310    -0.25900
C453        C  0.58902255  0.21631840  0.31079089     0.36200
C454        C  0.59885514  0.20325888  0.28935060    -0.19900
C455        C  0.58494793  0.18281095  0.27911345    -0.25200
C456        C  0.56161910  0.17518467  0.28975503     0.27500
H457        H  0.55782325  0.21911057  0.33726416     0.13300
N458        N  0.60300890  0.23676672  0.32237159    -0.82400
H459        H  0.59228890  0.17268915  0.26271894     0.18100
N460        N  0.54793174  0.15396360  0.27929633    -0.81000
H461        H  0.59280457  0.24462060  0.33755116     0.33800
H462        H  0.61956224  0.22901647  0.33016811     0.38300
H463        H  0.55763643  0.14637340  0.26366888     0.33700
H464        H  0.54740961  0.13972941  0.29316474     0.30400
H465        H  0.54385966  0.16938657  0.38281233     0.33700
H466        H  0.55876725  0.15821631  0.35689103     0.30400
H467        H  0.45105557  0.15964380  0.30365350     0.38300
H468        H  0.46340565  0.18181337  0.28442153     0.33800
C469        C  0.38521621  0.18643545  0.34733177    -0.20000
C470        C  0.38398596  0.19770584  0.32286315     0.36200
C471        C  0.36010835  0.20306314  0.31208261    -0.26000
C472        C  0.33758055  0.19776764  0.32529432     0.02700
C473        C  0.33866841  0.18670770  0.34959964     0.27500
C474        C  0.36238861  0.18099035  0.36026628    -0.25100
N475        N  0.40677142  0.20415720  0.30920216    -0.82500
H476        H  0.35899724  0.21165806  0.29338167     0.13300
C477        C  0.31281563  0.20403053  0.31362736     0.02600
N478        N  0.31562366  0.18155848  0.36342841    -0.81000
H479        H  0.36294903  0.17231321  0.37893899     0.18100
C480        C  0.29648136  0.18425999  0.30657777    -0.25900
C481        C  0.27251255  0.18928573  0.29594938     0.36200
C482        C  0.26454831  0.21485091  0.29271403    -0.19900
C483        C  0.28114229  0.23459770  0.29991974    -0.25200
C484        C  0.30517791  0.22943183  0.31031338     0.27500
H485        H  0.30258822  0.16477181  0.30930130     0.13300
N486        N  0.25621100  0.16846647  0.28901390    -0.82400
H487        H  0.27538053  0.25421151  0.29744532     0.18100
N488        N  0.32177451  0.24982768  0.31779026    -0.81000
H489        H  0.26404852  0.15116099  0.29485749     0.33800
H490        H  0.25567008  0.16773092  0.26914698     0.38300
H491        H  0.31337392  0.26743440  0.31398652     0.33700
H492        H  0.32407905  0.24879959  0.33751804     0.30400
H493        H  0.31968492  0.17324884  0.38102610     0.33700
H494        H  0.30689727  0.19899993  0.36730482     0.30400
H495        H  0.41584270  0.21870232  0.31926575     0.38300
H496        H  0.40241833  0.21158080  0.29127758     0.33800
C497        C  0.74252734  0.64044751  0.54854128    -0.20000
C498        C  0.75439186  0.63321918  0.57152433     0.36200
C499        C  0.74916182  0.64692688  0.59386083    -0.26000
C500        C  0.73243462  0.66769406  0.59368748     0.02700
C501        C  0.72130568  0.67552158  0.57061995     0.27500
C502        C  0.72666157  0.66195963  0.54823432    -0.25100
N503        N  0.77177762  0.61213821  0.57211123    -0.82500
H504        H  0.75796837  0.64127548  0.61160917     0.13300
C505        C  0.72579549  0.68020984  0.61805832     0.02600
N506        N  0.70404646  0.69671893  0.57017729    -0.81000
H507        H  0.71759055  0.66765645  0.53064107     0.18100
C508        C  0.73061617  0.70624775  0.62139293    -0.25900
C509        C  0.72426173  0.71858345  0.64428760     0.36200
C510        C  0.71299158  0.70444236  0.66415863    -0.19900
C511        C  0.70846208  0.67837311  0.66082109    -0.25200
C512        C  0.71440113  0.66618725  0.63786804     0.27500
H513        H  0.73950229  0.71688367  0.60613228     0.13300
N514        N  0.72955364  0.74520353  0.64755228    -0.82400
H515        H  0.69958703  0.66758400  0.67598524     0.18100
N516        N  0.70848983  0.63971921  0.63438701    -0.81000
H517        H  0.73773502  0.75276948  0.63107013     0.33800
H518        H  0.74315651  0.74692206  0.66194299     0.38300
H519        H  0.70020226  0.63216153  0.65081779     0.33700
H520        H  0.69480162  0.63845667  0.62002952     0.30400
H521        H  0.69758483  0.70007832  0.55167321     0.33700
H522        H  0.68809643  0.69175625  0.58097621     0.30400
H523        H  0.78746544  0.61698527  0.56086907     0.38300
H524        H  0.77865943  0.60924899  0.59053558     0.33800
C525        C  0.74188473  0.63657693  0.45507331    -0.20000
C526        C  0.75045689  0.62560854  0.43198936     0.36200
C527        C  0.74407158  0.63714365  0.40880464    -0.26000
C528        C  0.72974344  0.65954143  0.40819162     0.02700
C529        C  0.72210531  0.67116144  0.43108166     0.27500
C530        C  0.72821410  0.65955478  0.45431063    -0.25100
N531        N  0.76561175  0.60287424  0.43206997    -0.82500
H532        H  0.75002935  0.62849010  0.39105160     0.13300
C533        C  0.72224196  0.67021361  0.38334341     0.02600
N534        N  0.70795803  0.69454568  0.43056104    -0.81000
H535        H  0.72166730  0.66820987  0.47184175     0.18100
C536        C  0.69642934  0.67103282  0.37696446    -0.25900
C537        C  0.68836731  0.68091344  0.35352974     0.36200
C538        C  0.70673028  0.68985197  0.33589422    -0.19900
C539        C  0.73265997  0.68878360  0.34244771    -0.25200
C540        C  0.74057032  0.67915409  0.36602422     0.27500
H541        H  0.68250732  0.66399132  0.39045471     0.13300
N542        N  0.66164817  0.68207781  0.34786047    -0.82400
H543        H  0.74690373  0.69550767  0.32915388     0.18100
N544        N  0.76710376  0.67852109  0.37255360    -0.81000
H545        H  0.65093895  0.67387135  0.36248144     0.33800
H546        H  0.65650559  0.70127087  0.34729340     0.38300
H547        H  0.77817250  0.68568756  0.35765503     0.33700
H548        H  0.76976607  0.69072658  0.38803065     0.30400
H549        H  0.70364763  0.70055674  0.44903523     0.33700
H550        H  0.71971205  0.70848391  0.42262531     0.30400
H551        H  0.78292662  0.60730292  0.44077124     0.38300
H552        H  0.76991609  0.59713754  0.41351264     0.33800
C553        C  0.43052844  0.80296189  0.56623377    -0.20000
C554        C  0.41287445  0.78945124  0.55109726     0.36200
C555        C  0.41392868  0.79176462  0.52449524    -0.26000
C556        C  0.43219912  0.80717803  0.51277383     0.02700
C557        C  0.44934590  0.82127206  0.52776387     0.27500
C558        C  0.44851700  0.81878476  0.55438065    -0.25100
N559        N  0.39442738  0.77290492  0.56266762    -0.82500
H560        H  0.40073980  0.78114536  0.51275292     0.13300
C561        C  0.43323004  0.80795414  0.48470017     0.02600
N562        N  0.46694658  0.83858689  0.51597492    -0.81000
H563        H  0.46181493  0.82943460  0.56596361     0.18100
C564        C  0.41582831  0.82315846  0.47147210    -0.25900
C565        C  0.41540437  0.82342187  0.44471464     0.36200
C566        C  0.43304216  0.80839609  0.43105532    -0.19900
C567        C  0.45045723  0.79323867  0.44444169    -0.25200
C568        C  0.45038043  0.79244845  0.47113948     0.27500
H569        H  0.40239736  0.83463735  0.48210822     0.13300
N570        N  0.39721497  0.83888339  0.43143001    -0.82400
H571        H  0.46355858  0.78121893  0.43399992     0.18100
N572        N  0.46665745  0.77498872  0.48447178    -0.81000
H573        H  0.38545888  0.84848628  0.44429593     0.33800
H574        H  0.40731405  0.85278928  0.42142958     0.38300
H575        H  0.47735530  0.76420966  0.47160905     0.33700
H576        H  0.47966262  0.78550097  0.49514175     0.30400
H577        H  0.47773374  0.84799423  0.52977860     0.33700
H578        H  0.47976379  0.82805074  0.50506546     0.30400
H579        H  0.40431222  0.75799745  0.57131421     0.38300
H580        H  0.38273200  0.76467570  0.54885400     0.33800
C581        C  0.47933562  0.79337548  0.64511642    -0.20000
C582        C  0.48380474  0.80211628  0.67014814     0.36200
C583        C  0.50778373  0.79807620  0.68138842    -0.26000
C584        C  0.52723727  0.78552053  0.66810713     0.02700
C585        C  0.52285236  0.77688031  0.64314633     0.27500
C586        C  0.49904942  0.78109558  0.63183829    -0.25100
N587        N  0.46414108  0.81516823  0.68396356    -0.82500
H588        H  0.51130072  0.80452351  0.70065003     0.13300
C589        C  0.55164942  0.78012029  0.68104911     0.02600
N590        N  0.54231675  0.76311408  0.62971747    -0.81000
H591        H  0.49565882  0.77412337  0.61273789     0.18100
C592        C  0.55402535  0.75756563  0.69496323    -0.25900
C593        C  0.57691920  0.75128923  0.70723201     0.36200
C594        C  0.59789091  0.76807642  0.70563034    -0.19900
C595        C  0.59549444  0.79058595  0.69141246    -0.25200
C596        C  0.57248617  0.79686611  0.67923691     0.27500
H597        H  0.53795464  0.74471059  0.69604597     0.13300
N598        N  0.57906685  0.72770300  0.72087812    -0.82400
H599        H  0.61148951  0.80350914  0.69016409     0.18100
N600        N  0.57000985  0.82036887  0.66551333    -0.81000
H601        H  0.56189336  0.71770029  0.72038181     0.33800
H602        H  0.59244430  0.71647252  0.71134941     0.38300
H603        H  0.58693193  0.83076479  0.66640177     0.33700
H604        H  0.56710056  0.81599054  0.64634652     0.30400
H605        H  0.53581812  0.75747240  0.61179050     0.33700
H606        H  0.55749071  0.77553519  0.62653483     0.30400
H607        H  0.46033870  0.83215215  0.67436903     0.38300
H608        H  0.47047863  0.82019903  0.70212837     0.33800
C609        C  0.58358912  0.53913541  0.80279165    -0.20000
C610        C  0.57282178  0.55810384  0.78712300     0.36200
C611        C  0.58586665  0.58104013  0.78350864    -0.26000
C612        C  0.60943334  0.58526664  0.79501754     0.02700
C613        C  0.62027031  0.56651206  0.81072729     0.27500
C614        C  0.60723747  0.54345829  0.81439197    -0.25100
N615        N  0.54902724  0.55375974  0.77440980    -0.82500
H616        H  0.57783976  0.59560588  0.77134898     0.13300
C617        C  0.62263673  0.60936073  0.78971202     0.02600
N618        N  0.64419191  0.57112847  0.82310143    -0.81000
H619        H  0.61538344  0.52893867  0.82651617     0.18100
C620        C  0.61745123  0.63060494  0.80490097    -0.25900
C621        C  0.62805978  0.65442399  0.79912642     0.36200
C622        C  0.64411744  0.65684393  0.77766784    -0.19900
C623        C  0.64953105  0.63532545  0.76275471    -0.25200
C624        C  0.63871800  0.61162826  0.76843192     0.27500
H625        H  0.60483673  0.62860273  0.82109890     0.13300
N626        N  0.62267807  0.67604277  0.81499459    -0.82400
H627        H  0.66168017  0.63715371  0.74618601     0.18100
N628        N  0.64321472  0.59006308  0.75220602    -0.81000
H629        H  0.61030633  0.67103808  0.82975452     0.33800
H630        H  0.63973807  0.68160272  0.82353982     0.38300
H631        H  0.65500074  0.59508086  0.73697817     0.33700
H632        H  0.65311092  0.57646864  0.76276536     0.30400
H633        H  0.64930702  0.55555770  0.83433957     0.33700
H634        H  0.65813320  0.57276299  0.80901216     0.30400
H635        H  0.55179546  0.53894381  0.76142655     0.38300
H636        H  0.54371902  0.56968226  0.76376951     0.33800
C637        C  0.26618664  0.76138961  0.70610608    -0.20000
C638        C  0.26801859  0.78015555  0.68695594     0.36200
C639        C  0.29180797  0.78539030  0.67593826    -0.26000
C640        C  0.31377581  0.77253793  0.68386786     0.02700
C641        C  0.31212683  0.75434731  0.70344807     0.27500
C642        C  0.28838486  0.74908653  0.71449047    -0.25100
N643        N  0.24585982  0.79401272  0.67896712    -0.82500
H644        H  0.29330186  0.79959927  0.66108977     0.13300
C645        C  0.33827469  0.77788396  0.67098152     0.02600
N646        N  0.33447455  0.74090941  0.71161780    -0.81000
H647        H  0.28712073  0.73472808  0.72921250     0.18100
C648        C  0.35854234  0.78819522  0.68488828    -0.25900
C649        C  0.38193675  0.79379901  0.67310946     0.36200
C650        C  0.38513388  0.78871907  0.64684916    -0.19900
C651        C  0.36465856  0.77835799  0.63307476    -0.25200
C652        C  0.34138642  0.77274818  0.64488089     0.27500
H653        H  0.35592615  0.79220407  0.70494919     0.13300
N654        N  0.40216602  0.80501674  0.68764125    -0.82400
H655        H  0.36691447  0.77412013  0.61303031     0.18100
N656        N  0.32095911  0.76155044  0.63056482    -0.81000
H657        H  0.39678749  0.80717037  0.70668480     0.33800
H658        H  0.40521125  0.82331930  0.68052237     0.38300
H659        H  0.32625913  0.75904337  0.61154708     0.33700
H660        H  0.31764779  0.74340655  0.63798066     0.30400
H661        H  0.33003609  0.72823523  0.72628462     0.33700
H662        H  0.34083178  0.72991270  0.69629974     0.30400
H663        H  0.23958822  0.80476691  0.69449340     0.38300
H664        H  0.25049550  0.80695768  0.66459982     0.33800
C665        C  0.12176781  0.63636933  0.45035224    -0.20000
C666        C  0.10744994  0.63414483  0.42780681     0.36200
C667        C  0.11431444  0.64870943  0.40646616    -0.26000
C668        C  0.13535725  0.66516832  0.40711739     0.02700
C669        C  0.14945148  0.66762848  0.42978634     0.27500
C670        C  0.14231783  0.65341883  0.45123298    -0.25100
N671        N  0.08585074  0.61743172  0.42675573    -0.82500
H672        H  0.10329502  0.64714606  0.38913002     0.13300
C673        C  0.14305121  0.67870944  0.38353322     0.02600
N674        N  0.17125929  0.68408864  0.43077744    -0.81000
H675        H  0.15330740  0.65515825  0.46857587     0.18100
C676        C  0.14556353  0.70528891  0.38355174    -0.25900
C677        C  0.15305154  0.71851200  0.36147578     0.36200
C678        C  0.15716569  0.70482539  0.33860793    -0.19900
C679        C  0.15471626  0.67819895  0.33885053    -0.25200
C680        C  0.14815582  0.66502301  0.36106319     0.27500
H681        H  0.14170724  0.71573910  0.40090648     0.13300
N682        N  0.15591667  0.74568459  0.36221698    -0.82400
H683        H  0.15835212  0.66743799  0.32164443     0.18100
N684        N  0.14694439  0.63770568  0.36098789    -0.81000
H685        H  0.15048102  0.75281348  0.37998907     0.33800
H686        H  0.17531469  0.74965382  0.36045183     0.38300
H687        H  0.15112779  0.63050051  0.34291638     0.33700
H688        H  0.16114347  0.63103954  0.37318510     0.30400
H689        H  0.17944089  0.68379979  0.44889410     0.33700
H690        H  0.18488772  0.67681100  0.41823491     0.30400
H691        H  0.07225760  0.62435280  0.43953879     0.38300
H692        H  0.07749547  0.61794344  0.40872414     0.33800
C693        C  0.15188028  0.68962907  0.66051329    -0.20000
C694        C  0.16150217  0.66572559  0.65308787     0.36200
C695        C  0.15340174  0.65492044  0.63004089    -0.26000
C696        C  0.13585989  0.66753176  0.61449307     0.02700
C697        C  0.12583061  0.69118772  0.62209643     0.27500
C698        C  0.13418909  0.70217205  0.64499749    -0.25100
N699        N  0.17983728  0.65282926  0.66870551    -0.82500
H700        H  0.16104936  0.63677899  0.62393387     0.13300
C701        C  0.12924027  0.65616702  0.58970143     0.02600
N702        N  0.10691347  0.70365082  0.60680843    -0.81000
H703        H  0.12665758  0.72040588  0.65096731     0.18100
C704        C  0.10974798  0.63805722  0.58829415    -0.25900
C705        C  0.10396244  0.62592462  0.56513866     0.36200
C706        C  0.11807338  0.63214923  0.54309283    -0.19900
C707        C  0.13744582  0.65048543  0.54468207    -0.25200
C708        C  0.14330695  0.66239828  0.56779619     0.27500
H709        H  0.09917328  0.63330797  0.60535102     0.13300
N710        N  0.08378220  0.60753947  0.56394087    -0.82400
H711        H  0.14853035  0.65512025  0.52792044     0.18100
N712        N  0.16407419  0.68012540  0.56934028    -0.81000
H713        H  0.07550710  0.60502044  0.58186112     0.33800
H714        H  0.06961334  0.61493117  0.55213195     0.38300
H715        H  0.17298182  0.68204080  0.55164986     0.33700
H716        H  0.15657553  0.69796311  0.57383321     0.30400
H717        H  0.10111709  0.72062816  0.61540567     0.33700
H718        H  0.11528797  0.70864859  0.58949299     0.30400
H719        H  0.19631315  0.66394957  0.66905233     0.38300
H720        H  0.18493119  0.63542206  0.66054270     0.33800
C721        C  0.64061331  0.32603887  0.77338500    -0.20000
C722        C  0.62790871  0.34111445  0.75491579     0.36200
C723        C  0.61813544  0.36502031  0.76184476    -0.26000
C724        C  0.62021306  0.37413894  0.78677564     0.02700
C725        C  0.63254413  0.35925791  0.80527466     0.27500
C726        C  0.64260105  0.33542672  0.79843078    -0.25100
N727        N  0.62490310  0.33232127  0.72918113    -0.82500
H728        H  0.60836184  0.37648997  0.74779894     0.13300
C729        C  0.60866089  0.39903451  0.79334076     0.02600
N730        N  0.63496013  0.36854683  0.83089114    -0.81000
H731        H  0.65217879  0.32422549  0.81279994     0.18100
C732        C  0.58847104  0.39983708  0.81076302    -0.25900
C733        C  0.57622714  0.42284852  0.81668747     0.36200
C734        C  0.58434463  0.44556802  0.80481705    -0.19900
C735        C  0.60496276  0.44475639  0.78777599    -0.25200
C736        C  0.61713342  0.42171141  0.78184791     0.27500
H737        H  0.58204233  0.38232671  0.81951283     0.13300
N738        N  0.55563663  0.42318301  0.83470760    -0.82400
H739        H  0.61119163  0.46205852  0.77849039     0.18100
N740        N  0.63790795  0.42116800  0.76404790    -0.81000
H741        H  0.55190310  0.40486629  0.84146572     0.33800
H742        H  0.56152312  0.43392732  0.85037045     0.38300
H743        H  0.64166244  0.43941226  0.75710689     0.33700
H744        H  0.65414006  0.41539708  0.77394621     0.30400
H745        H  0.64444999  0.35530433  0.84226723     0.33700
H746        H  0.64638300  0.38480474  0.83033122     0.30400
H747        H  0.61198204  0.31721610  0.72955957     0.38300
H748        H  0.61662358  0.34637534  0.71783023     0.33800
C749        C  0.43402122  0.17507273  0.56178433    -0.20000
C750        C  0.45282848  0.18686238  0.54658208     0.36200
C751        C  0.45155325  0.18459177  0.52000236    -0.26000
C752        C  0.43200893  0.17079876  0.50836612     0.02700
C753        C  0.41374990  0.15821453  0.52341821     0.27500
C754        C  0.41473063  0.16079800  0.55002675    -0.25100
N755        N  0.47273251  0.20165937  0.55807184    -0.82500
H756        H  0.46560243  0.19400848  0.50820535     0.13300
C757        C  0.43082656  0.17029926  0.48031293     0.02600
N758        N  0.39489268  0.14223124  0.51171539    -0.81000
H759        H  0.40056451  0.15137924  0.56167435     0.18100
C760        C  0.44706401  0.15399913  0.46683730    -0.25900
C761        C  0.44764849  0.15416998  0.44008412     0.36200
C762        C  0.43148504  0.17090955  0.42669585    -0.19900
C763        C  0.41516243  0.18710461  0.44033483    -0.25200
C764        C  0.41500326  0.18731481  0.46702744     0.27500
H765        H  0.45947517  0.14131078  0.47728293     0.13300
N766        N  0.46445505  0.13737947  0.42653172    -0.82400
H767        H  0.40310184  0.20030641  0.43011739     0.18100
N768        N  0.39991999  0.20565436  0.48065543    -0.81000
H769        H  0.47522673  0.12653862  0.43923416     0.33800
H770        H  0.45320592  0.12460660  0.41626722     0.38300
H771        H  0.39016768  0.21745282  0.46798133     0.33700
H772        H  0.38606141  0.19591725  0.49100764     0.30400
H773        H  0.38336038  0.13379727  0.52556798     0.33700
H774        H  0.38297001  0.15361957  0.50070406     0.30400
H775        H  0.46427307  0.21745983  0.56668973     0.38300
H776        H  0.48516129  0.20869418  0.54421712     0.33800
C777        C  0.48056077  0.18409405  0.64289305    -0.20000
C778        C  0.50437748  0.17756250  0.63190570     0.36200
C779        C  0.52686085  0.18170366  0.64577937    -0.26000
C780        C  0.52616996  0.19185020  0.67040688     0.02700
C781        C  0.50257592  0.19746649  0.68176692     0.27500
C782        C  0.48009040  0.19361865  0.66793049    -0.25100
N783        N  0.50584018  0.16690047  0.60674808    -0.82500
H784        H  0.54510936  0.17741191  0.63718868     0.13300
C785        C  0.55032156  0.19804398  0.68354724     0.02600
N786        N  0.50161958  0.20732876  0.70727205    -0.81000
H787        H  0.46212718  0.19856842  0.67672238     0.18100
C788        C  0.55532716  0.22345618  0.68971082    -0.25900
C789        C  0.57792286  0.23051434  0.70197949     0.36200
C790        C  0.59626048  0.21169861  0.70782429    -0.19900
C791        C  0.59105116  0.18614524  0.70185973    -0.25200
C792        C  0.56823782  0.17913144  0.68977667     0.27500
H793        H  0.54144344  0.23788710  0.68487819     0.13300
N794        N  0.58211509  0.25668897  0.70870679    -0.82400
H795        H  0.60496894  0.17163039  0.70629532     0.18100
N796        N  0.56316583  0.15294616  0.68381459    -0.81000
H797        H  0.56696834  0.26805364  0.70267365     0.33800
H798        H  0.58242103  0.25780277  0.72856766     0.38300
H799        H  0.57830582  0.14142334  0.68954438     0.33700
H800        H  0.54735727  0.14731601  0.69450251     0.30400
H801        H  0.48282525  0.21068973  0.71283330     0.33700
H802        H  0.50870491  0.19327351  0.71940469     0.30400
H803        H  0.49738001  0.14892739  0.60739998     0.38300
H804        H  0.52476248  0.16401153  0.60133755     0.33800
C805        C  0.75230881  0.55817964  0.50444704    -0.20000
C806        C  0.76784642  0.54494700  0.48703624     0.36200
C807        C  0.76702651  0.51833694  0.48611775    -0.26000
C808        C  0.75102839  0.50466429  0.50244443     0.02700
C809        C  0.73597142  0.51772113  0.52041307     0.27500
C810        C  0.73691463  0.54442784  0.52139155    -0.25100
N811        N  0.78479716  0.55846824  0.47054290    -0.82500
H812        H  0.77888464  0.50828312  0.47255867     0.13300
C813        C  0.75009770  0.47664747  0.50039581     0.02600
N814        N  0.71945279  0.50379693  0.53717891    -0.81000
H815        H  0.72487568  0.55456469  0.53472009     0.18100
C816        C  0.76071872  0.46186459  0.51979462    -0.25900
C817        C  0.75996053  0.43518794  0.51869718     0.36200
C818        C  0.74802037  0.42310886  0.49782143    -0.19900
C819        C  0.73786957  0.43805464  0.47814224    -0.25200
C820        C  0.73862231  0.46473649  0.47932789     0.27500
H821        H  0.76972362  0.47123982  0.53578677     0.13300
N822        N  0.77149536  0.42037900  0.53855833    -0.82400
H823        H  0.72859512  0.42891601  0.46217311     0.18100
N824        N  0.72741328  0.47982697  0.45949233    -0.81000
H825        H  0.77929742  0.43219141  0.55251897     0.33800
H826        H  0.78664673  0.41032962  0.53048052     0.38300
H827        H  0.71975994  0.46816083  0.44532224     0.33700
H828        H  0.71218389  0.48984371  0.46745844     0.30400
H829        H  0.70967843  0.51621510  0.54927127     0.33700
H830        H  0.70572469  0.49479472  0.52597415     0.30400
H831        H  0.78035683  0.55362032  0.45177328     0.38300
H832        H  0.80330332  0.55223825  0.47423454     0.33800
C833        C  0.71094087  0.27715368  0.33370660    -0.20000
C834        C  0.69263630  0.29175943  0.34708550     0.36200
C835        C  0.69985672  0.30556346  0.36870914    -0.26000
C836        C  0.72495868  0.30513440  0.37746427     0.02700
C837        C  0.74336396  0.29081203  0.36431528     0.27500
C838        C  0.73618836  0.27691549  0.34262257    -0.25100
N839        N  0.66662893  0.29259160  0.33904267    -0.82500
H840        H  0.68565009  0.31644296  0.37897558     0.13300
C841        C  0.73128777  0.31890620  0.40115192     0.02600
N842        N  0.76925740  0.29056297  0.37302921    -0.81000
H843        H  0.75049903  0.26601927  0.33256637     0.18100
C844        C  0.73741120  0.30492377  0.42292015    -0.25900
C845        C  0.74130415  0.31702889  0.44634041     0.36200
C846        C  0.73881997  0.34376504  0.44821302    -0.19900
C847        C  0.73376046  0.35780250  0.42598771    -0.25200
C848        C  0.73000465  0.34560848  0.40246861     0.27500
H849        H  0.73866194  0.28438088  0.42183447     0.13300
N850        N  0.74786502  0.30198104  0.46806804    -0.82400
H851        H  0.73207813  0.37829898  0.42700902     0.18100
N852        N  0.72461050  0.36013786  0.37995761    -0.81000
H853        H  0.76461211  0.29210073  0.46391595     0.33800
H854        H  0.73340663  0.28864501  0.47098324     0.38300
H855        H  0.72427221  0.37956661  0.38412487     0.33700
H856        H  0.73965480  0.35731554  0.36722882     0.30400
H857        H  0.78047042  0.27905065  0.36129456     0.33700
H858        H  0.77635506  0.30904730  0.37129478     0.30400
H859        H  0.65525244  0.28609213  0.35401762     0.38300
H860        H  0.66184197  0.31154690  0.33545658     0.33800
C861        C  0.70703822  0.27949530  0.65953503    -0.20000
C862        C  0.73198463  0.27986224  0.64919591     0.36200
C863        C  0.73645940  0.29238600  0.62599695    -0.26000
C864        C  0.71667275  0.30414955  0.61267222     0.02700
C865        C  0.69181986  0.30355262  0.62257572     0.27500
C866        C  0.68724955  0.29124802  0.64583197    -0.25100
N867        N  0.75279329  0.26786601  0.66222374    -0.82500
H868        H  0.75549680  0.29284754  0.61808994     0.13300
C869        C  0.72233947  0.31730545  0.58843968     0.02600
N870        N  0.67139646  0.31574479  0.60911417    -0.81000
H871        H  0.66806397  0.29107848  0.65334570     0.18100
C872        C  0.71193112  0.30800526  0.56575218    -0.25900
C873        C  0.71664850  0.32019624  0.54249987     0.36200
C874        C  0.73208221  0.34218718  0.54184374    -0.19900
C875        C  0.74258146  0.35134817  0.56465789    -0.25200
C876        C  0.73785340  0.33913178  0.58794607     0.27500
H877        H  0.69996949  0.29122746  0.56612756     0.13300
N878        N  0.70510981  0.31053693  0.51979449    -0.82400
H879        H  0.75450921  0.36813877  0.56435219     0.18100
N880        N  0.74848974  0.34891997  0.61115347    -0.81000
H881        H  0.68540062  0.31047871  0.52240901     0.33800
H882        H  0.71104876  0.29172287  0.51734221     0.38300
H883        H  0.75959135  0.36500376  0.60750860     0.33700
H884        H  0.73340055  0.35489776  0.62266504     0.30400
H885        H  0.65422377  0.31349248  0.61888729     0.33700
H886        H  0.67520942  0.33525726  0.60878809     0.30400
H887        H  0.74991723  0.24822529  0.66115449     0.38300
H888        H  0.76997124  0.27141718  0.65284190     0.33800
C889        C  0.26985750  0.21145722  0.70655743    -0.20000
C890        C  0.27822781  0.18607537  0.70321876     0.36200
C891        C  0.30180466  0.18143723  0.69135897    -0.26000
C892        C  0.31677811  0.20152733  0.68227888     0.02700
C893        C  0.30837768  0.22673773  0.68526851     0.27500
C894        C  0.28505206  0.23144674  0.69731622    -0.25100
N895        N  0.26264443  0.16512364  0.71131720    -0.82500
H896        H  0.30830739  0.16207646  0.68863726     0.13300
C897        C  0.34080286  0.19606739  0.66866243     0.02600
N898        N  0.32367756  0.24745606  0.67608077    -0.81000
H899        H  0.27889588  0.25094915  0.69976514     0.18100
C900        C  0.34222038  0.20119988  0.64258367    -0.25900
C901        C  0.36486280  0.19747736  0.62902678     0.36200
C902        C  0.38664211  0.18805393  0.64166276    -0.19900
C903        C  0.38511798  0.18295952  0.66792228    -0.25200
C904        C  0.36241591  0.18698304  0.68156557     0.27500
H905        H  0.32567228  0.20852764  0.63273774     0.13300
N906        N  0.36575159  0.20413146  0.60261651    -0.82400
H907        H  0.40168770  0.17588139  0.67788062     0.18100
N908        N  0.36127549  0.18222827  0.70847432    -0.81000
H909        H  0.35193846  0.19349699  0.59307205     0.33800
H910        H  0.36100655  0.22336048  0.60091243     0.38300
H911        H  0.37879421  0.17558901  0.71509984     0.33700
H912        H  0.35800630  0.19962329  0.71754806     0.30400
H913        H  0.31471305  0.26485650  0.67954909     0.33700
H914        H  0.34055819  0.24757165  0.68656998     0.30400
H915        H  0.24619630  0.16524717  0.70015561     0.38300
H916        H  0.27174730  0.14782117  0.70770864     0.33800
C917        C  0.10227630  0.42063690  0.50191341    -0.20000
C918        C  0.08970864  0.43145041  0.48073706     0.36200
C919        C  0.08785888  0.45803867  0.47870390    -0.26000
C920        C  0.09817642  0.47397286  0.49740272     0.02700
C921        C  0.11033621  0.46323465  0.51874246     0.27500
C922        C  0.11202691  0.43667974  0.52091229    -0.25100
N923        N  0.07872339  0.41544423  0.46148428    -0.82500
H924        H  0.07836783  0.46643046  0.46246373     0.13300
C925        C  0.09687313  0.50194661  0.49423028     0.02600
N926        N  0.12145042  0.47939797  0.53779968    -0.81000
H927        H  0.12181735  0.42851134  0.53708753     0.18100
C928        C  0.08381486  0.51649619  0.51236489    -0.25900
C929        C  0.08456710  0.54318224  0.51171419     0.36200
C930        C  0.09894412  0.55555598  0.49263858    -0.19900
C931        C  0.11059439  0.54092531  0.47350417    -0.25200
C932        C  0.10985408  0.51420862  0.47421381     0.27500
H933        H  0.07344285  0.50692425  0.52739714     0.13300
N934        N  0.07098216  0.55773106  0.53047953    -0.82400
H935        H  0.12149567  0.55028702  0.45872643     0.18100
N936        N  0.12302812  0.49947991  0.45528032    -0.81000
H937        H  0.06148644  0.54574674  0.54319389     0.33800
H938        H  0.05698893  0.56816120  0.52097571     0.38300
H939        H  0.13158611  0.51137485  0.44183446     0.33700
H940        H  0.13773662  0.48970804  0.46439133     0.30400
H941        H  0.12966779  0.46854257  0.55227411     0.33700
H942        H  0.13624577  0.48953129  0.52919165     0.30400
H943        H  0.06405833  0.40505442  0.47000544     0.38300
H944        H  0.07036196  0.42639623  0.44716731     0.33800
C945        C  0.14984893  0.28011846  0.34156078    -0.20000
C946        C  0.12454719  0.28668467  0.34816314     0.36200
C947        C  0.11939390  0.29670807  0.37245470    -0.26000
C948        C  0.13886146  0.30036881  0.39021927     0.02700
C949        C  0.16392733  0.29335391  0.38405448     0.27500
C950        C  0.16918265  0.28329170  0.35981556    -0.25100
N951        N  0.10425943  0.28381263  0.33008558    -0.82500
H952        H  0.10018724  0.30234432  0.37738816     0.13300
C953        C  0.13303788  0.31364419  0.41435261     0.02600
N954        N  0.18392702  0.29666668  0.40238624    -0.81000
H955        H  0.18853864  0.27798716  0.35514759     0.18100
C956        C  0.12860218  0.29968165  0.43658335    -0.25900
C957        C  0.12242154  0.31195799  0.45962110     0.36200
C958        C  0.12124569  0.33891180  0.46046344    -0.19900
C959        C  0.12579534  0.35263741  0.43789685    -0.25200
C960        C  0.13162238  0.34030777  0.41495785     0.27500
H961        H  0.12955267  0.27911632  0.43580831     0.13300
N962        N  0.11686065  0.29705739  0.48182789    -0.82400
H963        H  0.12506570  0.37320770  0.43805470     0.18100
N964        N  0.13603745  0.35474758  0.39214984    -0.81000
H965        H  0.11942052  0.27768701  0.47812567     0.33800
H966        H  0.09753855  0.29946445  0.48583101     0.38300
H967        H  0.13393532  0.37419667  0.39566924     0.33700
H968        H  0.15498592  0.35196949  0.38678500     0.30400
H969        H  0.20126215  0.29029071  0.39500075     0.33700
H970        H  0.18599214  0.31615985  0.40566638     0.30400
H971        H  0.10761581  0.29661309  0.31524608     0.38300
H972        H  0.08684247  0.28898103  0.33819608     0.33800
C973        C  0.11579682  0.34440959  0.55464681    -0.20000
C974        C  0.11248126  0.31798535  0.55848600     0.36200
C975        C  0.11842765  0.30731622  0.58220953    -0.26000
C976        C  0.12702539  0.32250472  0.60228481     0.02700
C977        C  0.12864328  0.34900432  0.59920238     0.27500
C978        C  0.12305841  0.35973390  0.57538365    -0.25100
N979        N  0.10307684  0.30205139  0.53839504    -0.82500
H980        H  0.11685878  0.28695609  0.58496046     0.13300
C981        C  0.13579948  0.31004947  0.62584387     0.02600
N982        N  0.13639714  0.36476358  0.62015733    -0.81000
H983        H  0.12520922  0.38005469  0.57284323     0.18100
C984        C  0.16187950  0.30950198  0.63105680    -0.25900
C985        C  0.17144155  0.29593126  0.65195805     0.36200
C986        C  0.15432198  0.28294399  0.66828262    -0.19900
C987        C  0.12808414  0.28396568  0.66305553    -0.25200
C988        C  0.11868247  0.29740403  0.64201859     0.27500
H989        H  0.17488254  0.31913409  0.61827193     0.13300
N990        N  0.19842678  0.29502036  0.65625935    -0.82400
H991        H  0.11474988  0.27439331  0.67551374     0.18100
N992        N  0.09184666  0.29828006  0.63694244    -0.81000
H993        H  0.20810239  0.30619124  0.64294354     0.33800
H994        H  0.20433613  0.27628958  0.65317537     0.38300
H995        H  0.08179004  0.28790273  0.65061025     0.33700
H996        H  0.08601445  0.31719778  0.63877327     0.30400
H997        H  0.13668089  0.38388966  0.61475986     0.33700
H998        H  0.12257593  0.36308845  0.63438082     0.30400
H999        H  0.08444010  0.30776189  0.53451366     0.38300
H1000       H  0.10207989  0.28309301  0.54428156     0.33800
C1001       C  0.36212927  0.49110295  0.18513816    -0.20000
C1002       C  0.37879302  0.51098058  0.19237381     0.36200
C1003       C  0.40512115  0.50783501  0.18919180    -0.26000
C1004       C  0.41531515  0.48555863  0.17861043     0.02700
C1005       C  0.39868762  0.46637216  0.16997647     0.27500
C1006       C  0.37234900  0.46923780  0.17354607    -0.25100
N1007       N  0.36920003  0.53389730  0.20381229    -0.82500
H1008       H  0.41787457  0.52247611  0.19606185     0.13300
C1009       C  0.44340042  0.48197993  0.17865264     0.02600
N1010       N  0.40863623  0.44397037  0.15783928    -0.81000
H1011       H  0.35973942  0.45416372  0.16737959     0.18100
C1012       C  0.45371414  0.46021028  0.19010087    -0.25900
C1013       C  0.48011962  0.45712447  0.19285531     0.36200
C1014       C  0.49666771  0.47682535  0.18484658    -0.19900
C1015       C  0.48625611  0.49830589  0.17280614    -0.25200
C1016       C  0.45992531  0.50090016  0.16927308     0.27500
H1017       H  0.44103424  0.44575683  0.19750434     0.13300
N1018       N  0.48988793  0.43448016  0.20458722    -0.82400
H1019       H  0.49873363  0.51325466  0.16608157     0.18100
N1020       N  0.44986462  0.52278244  0.15636762    -0.81000
H1021       H  0.49887793  0.42391463  0.19031776     0.33800
H1022       H  0.47506884  0.42303803  0.21127287     0.38300
H1023       H  0.46451641  0.53501990  0.15079678     0.33700
H1024       H  0.44112907  0.51639970  0.13969158     0.30400
H1025       H  0.39391255  0.43165247  0.15269146     0.33700
H1026       H  0.41746503  0.44968431  0.14094727     0.30400
H1027       H  0.36200953  0.52912800  0.22172713     0.38300
H1028       H  0.38390420  0.54691247  0.20696390     0.33800
C1029       C  0.28212398  0.44568335  0.20298406    -0.20000
C1030       C  0.25924045  0.44390949  0.21722927     0.36200
C1031       C  0.24825369  0.41994642  0.22149522    -0.26000
C1032       C  0.25914877  0.39781703  0.21151184     0.02700
C1033       C  0.28138645  0.39944579  0.19671657     0.27500
C1034       C  0.29270145  0.42330652  0.19269109    -0.25100
N1035       N  0.24742209  0.46615939  0.22785559    -0.82500
H1036       H  0.23096837  0.41845140  0.23265034     0.13300
C1037       C  0.24715211  0.37302959  0.21723579     0.02600
N1038       N  0.29253026  0.37682743  0.18612970    -0.81000
H1039       H  0.31000682  0.42434340  0.18154077     0.18100
C1040       C  0.23538245  0.35933279  0.19770336    -0.25900
C1041       C  0.22251304  0.33643447  0.20272585     0.36200
C1042       C  0.22189119  0.32675107  0.22795609    -0.19900
C1043       C  0.23416278  0.34056628  0.24735534    -0.25200
C1044       C  0.24672374  0.36354874  0.24224435     0.27500
H1045       H  0.23574037  0.36691166  0.17853532     0.13300
N1046       N  0.21005241  0.32326197  0.18225929    -0.82400
H1047       H  0.23400097  0.33348127  0.26669765     0.18100
N1048       N  0.25909514  0.37737198  0.26233494    -0.81000
H1049       H  0.21367897  0.33219219  0.16486015     0.33800
H1050       H  0.19045961  0.32480044  0.18529913     0.38300
H1051       H  0.25693823  0.36794146  0.27971144     0.33700
H1052       H  0.27857319  0.37760431  0.25833743     0.30400
H1053       H  0.30879854  0.38129443  0.17558696     0.33700
H1054       H  0.29849899  0.36541790  0.20126978     0.30400
H1055       H  0.23938717  0.47626429  0.21275968     0.38300
H1056       H  0.23223886  0.46112765  0.23968933     0.33800
C1057       C  0.28399591  0.53969361  0.20433601    -0.20000
C1058       C  0.25799517  0.54324784  0.19839612     0.36200
C1059       C  0.24657350  0.56696686  0.20303467    -0.26000
C1060       C  0.26057279  0.58707217  0.21341051     0.02700
C1061       C  0.28634529  0.58358320  0.21962788     0.27500
C1062       C  0.29787285  0.55996794  0.21486338    -0.25100
N1063       N  0.24338480  0.52298463  0.18731393    -0.82500
H1064       H  0.22670504  0.56988525  0.19843833     0.13300
C1065       C  0.24793935  0.61171109  0.21797281     0.02600
N1066       N  0.30051230  0.60390799  0.23118571    -0.81000
H1067       H  0.31768787  0.55726831  0.21977249     0.18100
C1068       C  0.23677121  0.61630454  0.24171465    -0.25900
C1069       C  0.22504703  0.63969557  0.24702507     0.36200
C1070       C  0.22443079  0.65872459  0.22807110    -0.19900
C1071       C  0.23580609  0.65413093  0.20434481    -0.25200
C1072       C  0.24742408  0.63064176  0.19903112     0.27500
H1073       H  0.23744304  0.60164826  0.25618289     0.13300
N1074       N  0.21424099  0.64441328  0.27173430    -0.82400
H1075       H  0.23526758  0.66875460  0.18984196     0.18100
N1076       N  0.25836556  0.62574723  0.17443026    -0.81000
H1077       H  0.21619554  0.62844620  0.28340875     0.33800
H1078       H  0.22479122  0.65896614  0.28023149     0.38300
H1079       H  0.25603907  0.64148985  0.16252159     0.33700
H1080       H  0.27793757  0.62333278  0.17683263     0.30400
H1081       H  0.31912506  0.59811000  0.23504661     0.33700
H1082       H  0.30182845  0.61868567  0.21796854     0.30400
H1083       H  0.25101920  0.51919376  0.16933073     0.38300
H1084       H  0.22455090  0.52864641  0.18444437     0.33800
C1085       C  0.36910595  0.48843130  0.81957187    -0.20000
C1086       C  0.38389734  0.46611889  0.82282935     0.36200
C1087       C  0.41051819  0.46792001  0.82314503    -0.26000
C1088       C  0.42281745  0.49147219  0.82149082     0.02700
C1089       C  0.40821584  0.51386184  0.81978117     0.27500
C1090       C  0.38161866  0.51210151  0.81857450    -0.25100
N1091       N  0.37205895  0.44168628  0.82581927    -0.82500
H1092       H  0.42181225  0.45074354  0.82444587     0.13300
C1093       C  0.45099570  0.49220875  0.82033639     0.02600
N1094       N  0.42049263  0.53828357  0.81908539    -0.81000
H1095       H  0.37070769  0.52943343  0.81651867     0.18100
C1096       C  0.46274878  0.50440206  0.79970380    -0.25900
C1097       C  0.48928058  0.50473472  0.79722090     0.36200
C1098       C  0.50431620  0.49234383  0.81559505    -0.19900
C1099       C  0.49269417  0.47985511  0.83606337    -0.25200
C1100       C  0.46611633  0.47998875  0.83885921     0.27500
H1101       H  0.45112377  0.51329942  0.78521748     0.13300
N1102       N  0.50101347  0.51708659  0.77581796    -0.82400
H1103       H  0.50443059  0.47043517  0.85012816     0.18100
N1104       N  0.45442304  0.46799316  0.86048046    -0.81000
H1105       H  0.48727393  0.52538268  0.76410060     0.33800
H1106       H  0.51005922  0.50309499  0.76495005     0.38300
H1107       H  0.46820377  0.45986988  0.87226915     0.33700
H1108       H  0.44545410  0.48219183  0.87113971     0.30400
H1109       H  0.40706661  0.55287124  0.81763767     0.33700
H1110       H  0.42978607  0.54082672  0.83647089     0.30400
H1111       H  0.36276149  0.44184590  0.84340042     0.38300
H1112       H  0.38571195  0.42726795  0.82691881     0.33800
C1113       C  0.22666861  0.32459592  0.77487961    -0.20000
C1114       C  0.21531948  0.34252259  0.79144917     0.36200
C1115       C  0.22824456  0.36522108  0.79696689    -0.26000
C1116       C  0.25200811  0.37035720  0.78611103     0.02700
C1117       C  0.26316453  0.35284213  0.76925203     0.27500
C1118       C  0.25037222  0.33009913  0.76377566    -0.25100
N1119       N  0.19061500  0.33787187  0.80224068    -0.82500
H1120       H  0.21974648  0.37907583  0.80966315     0.13300
C1121       C  0.26479117  0.39451536  0.79214375     0.02600
N1122       N  0.28744290  0.35825020  0.75786740    -0.81000
H1123       H  0.25909685  0.31647711  0.75099065     0.18100
C1124       C  0.28487922  0.39464267  0.80958576    -0.25900
C1125       C  0.29739661  0.41738589  0.81585844     0.36200
C1126       C  0.28980756  0.44029308  0.80402366    -0.19900
C1127       C  0.26944697  0.43997604  0.78671756    -0.25200
C1128       C  0.25694970  0.41726888  0.78057119     0.27500
H1129       H  0.29058899  0.37696168  0.81847919     0.13300
N1130       N  0.31738699  0.41731394  0.83446124    -0.82400
H1131       H  0.26361097  0.45741756  0.77745838     0.18100
N1132       N  0.23646175  0.41711713  0.76248626    -0.81000
H1133       H  0.32069407  0.39890098  0.84116054     0.33800
H1134       H  0.31113252  0.42799454  0.85004651     0.38300
H1135       H  0.23290347  0.43549325  0.75581600     0.33700
H1136       H  0.24237380  0.40643229  0.74676992     0.30400
H1137       H  0.29312057  0.34329186  0.74604647     0.33700
H1138       H  0.28521380  0.37416062  0.74616543     0.30400
H1139       H  0.17752612  0.33754847  0.78728643     0.38300
H1140       H  0.18520944  0.35284648  0.81417391     0.33800
C1141       C  0.28869728  0.53336642  0.80337739    -0.20000
C1142       C  0.26306378  0.53664595  0.81075734     0.36200
C1143       C  0.25049665  0.55933887  0.80455486    -0.26000
C1144       C  0.26299352  0.57862096  0.79106725     0.02700
C1145       C  0.28848092  0.57530659  0.78350387     0.27500
C1146       C  0.30120181  0.55282278  0.79004617    -0.25100
N1147       N  0.25001512  0.51711913  0.82476179    -0.82500
H1148       H  0.23093482  0.56215054  0.81042723     0.13300
C1149       C  0.24926899  0.60240752  0.78529559     0.02600
N1150       N  0.30113557  0.59462350  0.76885402    -0.81000
H1151       H  0.32073750  0.55015354  0.78403065     0.18100
C1152       C  0.25826568  0.62528852  0.79547843    -0.25900
C1153       C  0.24590110  0.64837631  0.79048995     0.36200
C1154       C  0.22414614  0.64853546  0.77460095    -0.19900
C1155       C  0.21498990  0.62537320  0.76481112    -0.25200
C1156       C  0.22740784  0.60234448  0.76989783     0.27500
H1157       H  0.27493628  0.62503907  0.80757774     0.13300
N1158       N  0.25534502  0.67148656  0.80164914    -0.82400
H1159       H  0.19840627  0.62522497  0.75261173     0.18100
N1160       N  0.21820726  0.57894740  0.75915214    -0.81000
H1161       H  0.27184138  0.66803048  0.81217634     0.33800
H1162       H  0.24165879  0.67790903  0.81459250     0.38300
H1163       H  0.20185168  0.58215594  0.74833280     0.33700
H1164       H  0.23209757  0.57220851  0.74659527     0.30400
H1165       H  0.31983583  0.58921667  0.76478016     0.33700
H1166       H  0.29174070  0.59604102  0.75139036     0.30400
H1167       H  0.25901053  0.51533810  0.84239573     0.38300
H1168       H  0.23123432  0.52249510  0.82850257     0.33800
C1169       C  0.77339882  0.25875597  0.20929736    -0.20000
C1170       C  0.79736706  0.24963501  0.21763430     0.36200
C1171       C  0.81961202  0.25788382  0.20524908    -0.26000
C1172       C  0.81852827  0.27518580  0.18502938     0.02700
C1173       C  0.79481957  0.28459616  0.17694638     0.27500
C1174       C  0.77255894  0.27620401  0.18902924    -0.25100
N1175       N  0.79915194  0.23150169  0.23801484    -0.82500
H1176       H  0.83792667  0.25054155  0.21116235     0.13300
C1177       C  0.84222601  0.28232519  0.17154106     0.02600
N1178       N  0.79348773  0.30262380  0.15643053    -0.80600
H1179       H  0.75441769  0.28351804  0.18260317     0.18100
C1180       C  0.84450687  0.27634269  0.14568823    -0.25900
C1181       C  0.86652308  0.28251241  0.13196632     0.36200
C1182       C  0.88670715  0.29530372  0.14437643    -0.19900
C1183       C  0.88453527  0.30094931  0.17042250    -0.25200
C1184       C  0.86240689  0.29468247  0.18412275     0.27500
H1185       H  0.82909227  0.26643207  0.13626769     0.13300
N1186       N  0.86861804  0.27523696  0.10566357    -0.82400
H1187       H  0.89996383  0.31066375  0.18000575     0.18100
N1188       N  0.86020280  0.30103280  0.21063725    -0.81000
H1189       H  0.85197719  0.26631782  0.09943827     0.33800
H1190       H  0.88311937  0.26170854  0.10430242     0.38300
H1191       H  0.87673277  0.31001416  0.21704712     0.33700
H1192       H  0.84546385  0.31424971  0.21247449     0.30400
H1193       H  0.77461168  0.30754590  0.15263945     0.33700
H1194       H  0.80261235  0.31923474  0.16243246     0.30400
H1195       H  0.79475707  0.24106301  0.25489563     0.38300
H1196       H  0.81786650  0.22511816  0.24007461     0.33800
C1197       C  0.97992437  0.30342660  0.14120657    -0.20000
C1198       C  0.00074626  0.29245917  0.12805224     0.36200
C1199       C  0.02347554  0.28756955  0.14121454    -0.26000
C1200       C  0.02577115  0.29326590  0.16712159     0.02700
C1201       C  0.00547393  0.30505847  0.18005568     0.27500
C1202       C  0.98267057  0.30988015  0.16699629    -0.25100
N1203       N  0.99850456  0.28542854  0.10170149    -0.82500
H1204       H  0.03926296  0.27859274  0.13144389     0.13300
C1205       C  0.04916983  0.28573177  0.18074540     0.02600
N1206       N  0.00820756  0.31226313  0.20630675    -0.81000
H1207       H  0.96688648  0.31855624  0.17703560     0.18100
C1208       C  0.07029331  0.30194561  0.18052725    -0.25900
C1209       C  0.09277476  0.29535171  0.19343502     0.36200
C1210       C  0.09388935  0.27221040  0.20706150    -0.19900
C1211       C  0.07272242  0.25594940  0.20703237    -0.25200
C1212       C  0.05050034  0.26228918  0.19363477     0.27500
H1213       H  0.06917207  0.31978443  0.17028652     0.13300
N1214       N  0.11433030  0.31215310  0.19298192    -0.82400
H1215       H  0.07379058  0.23793163  0.21696017     0.18100
N1216       N  0.02959621  0.24470536  0.19235485    -0.81000
H1217       H  0.11045879  0.32821369  0.18193605     0.33800
H1218       H  0.11730151  0.31860110  0.21156328     0.38300
H1219       H  0.03391276  0.22800136  0.20221644     0.33700
H1220       H  0.01406537  0.25289322  0.20166630     0.30400
H1221       H  0.99170550  0.32123580  0.21285160     0.33700
H1222       H  0.01022662  0.29569768  0.21706284     0.30400
H1223       H  0.98516686  0.27074345  0.10052335     0.38300
H1224       H  0.01566289  0.27802009  0.09487433     0.33800
C1225       C  0.88636119  0.68135440  0.85416431    -0.20000
C1226       C  0.88544643  0.69702121  0.83226505     0.36200
C1227       C  0.86185602  0.70259266  0.82108373    -0.26000
C1228       C  0.83917757  0.69319723  0.83140177     0.02700
C1229       C  0.83993085  0.67761809  0.85316987     0.27500
C1230       C  0.86351878  0.67183745  0.86433904    -0.25100
N1231       N  0.90830151  0.70781810  0.82181339    -0.82500
H1232       H  0.86105366  0.71465265  0.80439138     0.13300
C1233       C  0.81473333  0.70046517  0.81947756     0.02600
N1234       N  0.81672046  0.66797769  0.86394607    -0.81000
H1235       H  0.86405780  0.65985095  0.88108718     0.18100
C1236       C  0.80027026  0.68199930  0.80692008    -0.25900
C1237       C  0.77723105  0.68831971  0.79490727     0.36200
C1238       C  0.76859238  0.71389876  0.79527586    -0.19900
C1239       C  0.78319291  0.73224509  0.80819543    -0.25200
C1240       C  0.80609212  0.72577246  0.82030924     0.27500
H1241       H  0.80707250  0.66255513  0.80646867     0.13300
N1242       N  0.76267104  0.66877668  0.78251930    -0.82400
H1243       H  0.77685497  0.75182876  0.80873862     0.18100
N1244       N  0.82068325  0.74478287  0.83346421    -0.81000
H1245       H  0.77216650  0.65132702  0.78328889     0.33800
H1246       H  0.74582710  0.66645549  0.79284597     0.38300
H1247       H  0.81182364  0.76252983  0.83220936     0.33700
H1248       H  0.82091270  0.73991852  0.85274873     0.30400
H1249       H  0.82055311  0.65672124  0.87987552     0.33700
H1250       H  0.80615382  0.68353176  0.87042029     0.30400
H1251       H  0.91555781  0.72056117  0.83523738     0.38300
H1252       H  0.90428735  0.71847562  0.80551532     0.33800
C1253       C  0.97941646  0.67274717  0.85126887    -0.20000
C1254       C  0.00129542  0.65860663  0.85782931     0.36200
C1255       C  0.02448701  0.66393861  0.84562084    -0.26000
C1256       C  0.02599299  0.68288422  0.82697907     0.02700
C1257       C  0.00402450  0.69624380  0.81964508     0.27500
C1258       C  0.98090127  0.69096063  0.83180105    -0.25100
N1259       N  0.99985543  0.63893469  0.87674750    -0.82500
H1260       H  0.04148707  0.65350898  0.85077088     0.13300
C1261       C  0.05072854  0.68898117  0.81534169     0.02600
N1262       N  0.00535390  0.71515463  0.79992787    -0.81000
H1263       H  0.96417747  0.70182197  0.82668622     0.18100
C1264       C  0.05817922  0.67612049  0.79327384    -0.25900
C1265       C  0.08053466  0.68291833  0.78032201     0.36200
C1266       C  0.09569447  0.70305660  0.78982104    -0.19900
C1267       C  0.08831966  0.71548426  0.81234631    -0.25200
C1268       C  0.06602464  0.70853791  0.82528687     0.27500
H1269       H  0.04616420  0.66111636  0.78584969     0.13300
N1270       N  0.08748734  0.66983055  0.75731477    -0.82400
H1271       H  0.10005963  0.73059491  0.81997531     0.18100
N1272       N  0.05895209  0.72104436  0.84859136    -0.81000
H1273       H  0.07457308  0.65524589  0.75334266     0.33800
H1274       H  0.08610562  0.68283890  0.74235011     0.38300
H1275       H  0.07253766  0.73466737  0.85358807     0.33700
H1276       H  0.04200810  0.73089907  0.84539866     0.30400
H1277       H  0.98738610  0.72293573  0.79652028     0.33700
H1278       H  0.01676063  0.73004121  0.80648050     0.30400
H1279       H  0.98774439  0.62480029  0.86979466     0.38300
H1280       H  0.01763228  0.63039613  0.87930169     0.33800
C1281       C  0.13792798  0.83113839  0.27769896    -0.20000
C1282       C  0.13894417  0.84111156  0.30281177     0.36200
C1283       C  0.12556409  0.86349113  0.30866063    -0.26000
C1284       C  0.11165784  0.87635485  0.29005397     0.02700
C1285       C  0.11052881  0.86670032  0.26514701     0.27500
C1286       C  0.12366031  0.84423384  0.25919418    -0.25100
N1287       N  0.15335669  0.82862218  0.32238641    -0.82500
H1288       H  0.12629375  0.87123938  0.32775897     0.13300
C1289       C  0.09881450  0.90036887  0.29676304     0.02600
N1290       N  0.09603301  0.87980789  0.24604270    -0.81000
H1291       H  0.12264712  0.83694786  0.23994426     0.18100
C1292       C  0.10990629  0.92337215  0.28937068    -0.25900
C1293       C  0.09793712  0.94668656  0.29450922     0.36200
C1294       C  0.07441772  0.94689305  0.30774399    -0.19900
C1295       C  0.06370063  0.92361652  0.31553574    -0.25200
C1296       C  0.07559400  0.90036510  0.31001909     0.27500
H1297       H  0.12779458  0.92304012  0.27910900     0.13300
N1298       N  0.10931252  0.96991681  0.28567256    -0.82400
H1299       H  0.04579910  0.92348380  0.32575612     0.18100
N1300       N  0.06412898  0.87673287  0.31759156    -0.81000
H1301       H  0.12690576  0.96635894  0.27706991     0.33800
H1302       H  0.09756989  0.97726258  0.27143623     0.38300
H1303       H  0.04709864  0.88002574  0.32733510     0.33700
H1304       H  0.05937748  0.86678200  0.30103687     0.30400
H1305       H  0.09726629  0.87033683  0.22859122     0.33700
H1306       H  0.07692269  0.87918160  0.25152750     0.30400
H1307       H  0.17260609  0.83104499  0.31800732     0.38300
H1308       H  0.15054404  0.83748482  0.33997690     0.33800
C1309       C  0.13260124  0.15824039  0.28492031    -0.20000
C1310       C  0.14627446  0.13861840  0.29709454     0.36200
C1311       C  0.13353354  0.11625913  0.30424486    -0.26000
C1312       C  0.10757562  0.11284288  0.29901771     0.02700
C1313       C  0.09374197  0.13280287  0.28759456     0.27500
C1314       C  0.10633615  0.15542468  0.28105730    -0.25100
N1315       N  0.17297582  0.14145444  0.30220893    -0.82500
H1316       H  0.14399253  0.10118001  0.31358813     0.13300
C1317       C  0.09554755  0.08778991  0.30429343     0.02600
N1318       N  0.06717777  0.12974184  0.28191264    -0.81000
H1319       H  0.09577695  0.17053875  0.27188177     0.18100
C1320       C  0.07308514  0.08653978  0.31870139    -0.25900
C1321       C  0.06059532  0.06326044  0.32290145     0.36200
C1322       C  0.07101441  0.04062796  0.31266890    -0.19900
C1323       C  0.09394317  0.04191581  0.29897837    -0.25200
C1324       C  0.10610140  0.06518627  0.29439034     0.27500
H1325       H  0.06523276  0.10385468  0.32665540     0.13300
N1326       N  0.03750858  0.06262002  0.33757214    -0.82400
H1327       H  0.10203971  0.02477480  0.29093912     0.18100
N1328       N  0.12878884  0.06601070  0.27909749    -0.81000
H1329       H  0.03222223  0.08093474  0.34323296     0.33800
H1330       H  0.04123844  0.05241200  0.35421436     0.38300
H1331       H  0.13417878  0.04773350  0.27342415     0.33700
H1332       H  0.12452078  0.07608064  0.26249878     0.30400
H1333       H  0.05981167  0.14625099  0.27366101     0.33700
H1334       H  0.06556450  0.11535613  0.26827538     0.30400
H1335       H  0.17503309  0.15631100  0.31527086     0.38300
H1336       H  0.18020867  0.12515041  0.31097022     0.33800
C1337       C  0.79260009  0.94258275  0.69375600    -0.20000
C1338       C  0.76587617  0.93996035  0.69186990     0.36200
C1339       C  0.75448934  0.91681690  0.69870804    -0.26000
C1340       C  0.76924770  0.89621083  0.70670799     0.02700
C1341       C  0.79586922  0.89823185  0.70740705     0.27500
C1342       C  0.80732198  0.92140711  0.70090236    -0.25100
N1343       N  0.75040938  0.96061480  0.68287820    -0.82500
H1344       H  0.73400778  0.91474872  0.69776352     0.13300
C1345       C  0.75644493  0.87250936  0.71420079     0.02600
N1346       N  0.81107978  0.87679303  0.71488655    -0.81000
H1347       H  0.82780896  0.92307586  0.70217313     0.18100
C1348       C  0.75382376  0.85308873  0.69622868    -0.25900
C1349       C  0.74104736  0.83051526  0.70238461     0.36200
C1350       C  0.73046489  0.82762117  0.72694814    -0.19900
C1351       C  0.73371352  0.84691397  0.74512964    -0.25200
C1352       C  0.74663019  0.86944084  0.73893532     0.27500
H1353       H  0.76177705  0.85561658  0.67736431     0.13300
N1354       N  0.73913306  0.81038104  0.68395925    -0.82400
H1355       H  0.72579964  0.84456691  0.76403171     0.18100
N1356       N  0.74957002  0.88935523  0.75744927    -0.81000
H1357       H  0.74784343  0.81562800  0.66685480     0.33800
H1358       H  0.74936032  0.79484399  0.69095807     0.38300
H1359       H  0.74102001  0.88420872  0.77466416     0.33700
H1360       H  0.76899948  0.89133000  0.76113275     0.30400
H1361       H  0.83041758  0.88133343  0.71409824     0.33700
H1362       H  0.80693739  0.87280355  0.73393154     0.30400
H1363       H  0.75536547  0.96394035  0.66389528     0.38300
H1364       H  0.73118326  0.95555066  0.68291380     0.33800
C1365       C  0.72765023  0.15344445  0.72024834    -0.20000
C1366       C  0.75422147  0.15038339  0.72297904     0.36200
C1367       C  0.76559704  0.12722846  0.71605230    -0.26000
C1368       C  0.75107579  0.10693778  0.70669366     0.02700
C1369       C  0.72455090  0.10986514  0.70399343     0.27500
C1370       C  0.71308996  0.13304501  0.71093110    -0.25100
N1371       N  0.76949472  0.17048022  0.73347697    -0.82500
H1372       H  0.78588968  0.12472149  0.71857397     0.13300
C1373       C  0.76396595  0.08242590  0.70108170     0.02600
N1374       N  0.70942815  0.08934543  0.69412661    -0.81000
H1375       H  0.69272748  0.13530121  0.70877538     0.18100
C1376       C  0.75681722  0.06062116  0.71463173    -0.25900
C1377       C  0.76990813  0.03761169  0.71146759     0.36200
C1378       C  0.79054949  0.03616738  0.69428365    -0.19900
C1379       C  0.79762685  0.05798890  0.68062885    -0.25200
C1380       C  0.78441507  0.08105296  0.68370393     0.27500
H1381       H  0.74142983  0.06164942  0.72833512     0.13300
N1382       N  0.76277648  0.01606373  0.72653770    -0.82400
H1383       H  0.81332662  0.05697079  0.66729511     0.18100
N1384       N  0.79162565  0.10310404  0.66925871    -0.81000
H1385       H  0.76427754  0.02110006  0.74571890     0.33800
H1386       H  0.74370735  0.01188761  0.72276953     0.38300
H1387       H  0.80707405  0.09898501  0.65741213     0.33700
H1388       H  0.77639575  0.10770414  0.65735368     0.30400
H1389       H  0.69025082  0.09452680  0.69339817     0.33700
H1390       H  0.71519708  0.08610665  0.67535516     0.30400
H1391       H  0.76381683  0.17307897  0.75237739     0.38300
H1392       H  0.78865638  0.16521243  0.73399240     0.33800
C1393       C  0.21530644  0.20094651  0.83931213    -0.20000
C1394       C  0.20565773  0.21005238  0.86287163     0.36200
C1395       C  0.21280624  0.19793714  0.88563651    -0.26000
C1396       C  0.22975594  0.17738607  0.88559527     0.02700
C1397       C  0.24039258  0.16913400  0.86240550     0.27500
C1398       C  0.23292972  0.18081429  0.83955402    -0.25100
N1399       N  0.18800410  0.23091526  0.86371786    -0.82500
H1400       H  0.20465387  0.20418238  0.90352886     0.13300
C1401       C  0.23461071  0.16343630  0.90969783     0.02600
N1402       N  0.25857357  0.14872833  0.86218425    -0.81000
H1403       H  0.24088332  0.17400968  0.82179003     0.18100
C1404       C  0.22771497  0.13775371  0.91119377    -0.25900
C1405       C  0.23019906  0.12403801  0.93396533     0.36200
C1406       C  0.23999519  0.13628528  0.95586631    -0.19900
C1407       C  0.24719651  0.16198295  0.95424148    -0.25200
C1408       C  0.24476734  0.17562995  0.93131971     0.27500
H1409       H  0.21962640  0.12855238  0.89461894     0.13300
N1410       N  0.22199762  0.09797627  0.93503781    -0.82400
H1411       H  0.25489971  0.17140502  0.97086977     0.18100
N1412       N  0.25260682  0.20176431  0.92985492    -0.81000
H1413       H  0.21567250  0.09181010  0.91721958     0.33800
H1414       H  0.20630154  0.09712474  0.94723882     0.38300
H1415       H  0.25970019  0.20791376  0.94738220     0.33700
H1416       H  0.26768966  0.20278487  0.91690945     0.30400
H1417       H  0.26456644  0.14485224  0.84361082     0.33700
H1418       H  0.27461772  0.15491125  0.87215894     0.30400
H1419       H  0.19807404  0.24737714  0.85896960     0.38300
H1420       H  0.18132002  0.23376763  0.88225355     0.33800
C1421       C  0.20306619  0.19653592  0.16800667    -0.20000
C1422       C  0.18528611  0.19456961  0.14802555     0.36200
C1423       C  0.19241808  0.18261579  0.12515464    -0.26000
C1424       C  0.21701291  0.17289347  0.12181389     0.02700
C1425       C  0.23501277  0.17538847  0.14152913     0.27500
C1426       C  0.22771638  0.18685893  0.16464347    -0.25100
N1427       N  0.15998910  0.20444756  0.15118943    -0.82500
H1428       H  0.17874042  0.18075073  0.10986415     0.13300
C1429       C  0.22343464  0.16000523  0.09753415     0.02600
N1430       N  0.26074689  0.16697144  0.13771550    -0.81000
H1431       H  0.24143521  0.18878716  0.17989004     0.18100
C1432       C  0.23103211  0.17455138  0.07656305    -0.25900
C1433       C  0.23583345  0.16319824  0.05273263     0.36200
C1434       C  0.23364027  0.13640896  0.05002432    -0.19900
C1435       C  0.22602674  0.12201244  0.07133198    -0.25200
C1436       C  0.22062189  0.13354129  0.09487928     0.27500
H1437       H  0.23272175  0.19497275  0.07871497     0.13300
N1438       N  0.24303149  0.17889587  0.03153115    -0.82400
H1439       H  0.22377063  0.10162858  0.06957047     0.18100
N1440       N  0.21148561  0.11858957  0.11589109    -0.81000
H1441       H  0.24598883  0.19765558  0.03741161     0.33800
H1442       H  0.22752316  0.17952272  0.01912416     0.38300
H1443       H  0.20977318  0.09949449  0.11063945     0.33700
H1444       H  0.22513062  0.11927356  0.13029834     0.30400
H1445       H  0.27174981  0.17080391  0.15381876     0.33700
H1446       H  0.26051494  0.14722907  0.13558548     0.30400
H1447       H  0.15114375  0.19392941  0.16556581     0.38300
H1448       H  0.14930077  0.20161286  0.13466599     0.33800
C1449       C  0.61900069  0.84040650  0.95510367    -0.20000
C1450       C  0.61349577  0.85331930  0.93204397     0.36200
C1451       C  0.61967858  0.84181087  0.90868288    -0.26000
C1452       C  0.63048833  0.81749467  0.90774160     0.02700
C1453       C  0.63451219  0.80396255  0.93047857     0.27500
C1454       C  0.62889262  0.81555920  0.95385408    -0.25100
N1455       N  0.60187230  0.87805984  0.93225594    -0.82500
H1456       H  0.61637400  0.85198727  0.89107325     0.13300
C1457       C  0.63826715  0.80660570  0.88290379     0.02600
N1458       N  0.64454098  0.77853966  0.92969421    -0.81000
H1459       H  0.63283513  0.80518309  0.97119140     0.18100
C1460       C  0.66383730  0.80011808  0.87911075    -0.25900
C1461       C  0.67204313  0.78894101  0.85628326     0.36200
C1462       C  0.65431199  0.78473358  0.83648535    -0.19900
C1463       C  0.62870889  0.79145956  0.84028791    -0.25200
C1464       C  0.62049415  0.80228142  0.86334178     0.27500
H1465       H  0.67740316  0.80351186  0.89424262     0.13300
N1466       N  0.69816246  0.78132434  0.85345466    -0.82400
H1467       H  0.61503766  0.78825308  0.82522249     0.18100
N1468       N  0.59416737  0.80861807  0.86710731    -0.81000
H1469       H  0.70866952  0.78608768  0.86964688     0.33800
H1470       H  0.69850446  0.76148951  0.85215213     0.38300
H1471       H  0.58357426  0.80432688  0.85084456     0.33700
H1472       H  0.58719010  0.79702486  0.88168393     0.30400
H1473       H  0.64653093  0.77121787  0.94807240     0.33700
H1474       H  0.63118132  0.76709871  0.92043406     0.30400
H1475       H  0.59978797  0.88503690  0.91374879     0.38300
H1476       H  0.58350151  0.87594886  0.93958429     0.33800
C1477       C  0.62655713  0.83543759  0.04830981    -0.20000
C1478       C  0.64015989  0.84586087  0.06903876     0.36200
C1479       C  0.64459097  0.83090602  0.09068056    -0.26000
C1480       C  0.63632988  0.80566389  0.09173850     0.02700
C1481       C  0.62345199  0.79489317  0.07093185     0.27500
C1482       C  0.61861045  0.80992686  0.04938647    -0.25100
N1483       N  0.65013359  0.87125047  0.06776842    -0.82500
H1484       H  0.65486787  0.83880564  0.10670572     0.13300
C1485       C  0.64177679  0.79068688  0.11476188     0.02600
N1486       N  0.61522269  0.76884905  0.07190961    -0.81000
H1487       H  0.60841122  0.80175811  0.03345818     0.18100
C1488       C  0.62356213  0.78963077  0.13418496    -0.25900
C1489       C  0.62884870  0.77710521  0.15715774     0.36200
C1490       C  0.65269282  0.76523021  0.16042212    -0.19900
C1491       C  0.67059641  0.76569698  0.14063710    -0.25200
C1492       C  0.66547992  0.77867711  0.11789283     0.27500
H1493       H  0.60542454  0.79904469  0.13156026     0.13300
N1494       N  0.61024437  0.77651104  0.17722480    -0.82400
H1495       H  0.68898952  0.75682695  0.14337129     0.18100
N1496       N  0.68449155  0.78050359  0.09830336    -0.81000
H1497       H  0.59381756  0.78630998  0.17183075     0.33800
H1498       H  0.60492809  0.75755002  0.17992776     0.38300
H1499       H  0.70110834  0.77109668  0.10381343     0.33700
H1500       H  0.67762466  0.77097589  0.08227021     0.30400
H1501       H  0.60584642  0.76388045  0.05509430     0.33700
H1502       H  0.63144761  0.75741693  0.07288393     0.30400
H1503       H  0.66397127  0.87146935  0.05346827     0.38300
H1504       H  0.65942040  0.87603757  0.08468716     0.33800
C1505       C  0.93133865  0.30869675  0.92940976    -0.20000
C1506       C  0.94616735  0.29282631  0.94518217     0.36200
C1507       C  0.94473330  0.29575115  0.97163608    -0.26000
C1508       C  0.92865582  0.31395045  0.98250140     0.02700
C1509       C  0.91375152  0.32976047  0.96690973     0.27500
C1510       C  0.91516684  0.32690343  0.94037502    -0.25100
N1511       N  0.96206103  0.27337600  0.93433048    -0.82500
H1512       H  0.95590601  0.28355948  0.98392240     0.13300
C1513       C  0.92737166  0.31559334  0.01039403     0.02600
N1514       N  0.89758196  0.34878010  0.97808235    -0.81000
H1515       H  0.90378634  0.33900147  0.92819402     0.18100
C1516       C  0.94487490  0.33093499  0.02330894    -0.25900
C1517       C  0.94585706  0.33101905  0.05001997     0.36200
C1518       C  0.92886848  0.31547627  0.06384910    -0.19900
C1519       C  0.91092864  0.30065170  0.05072223    -0.25200
C1520       C  0.91021757  0.30032255  0.02408621     0.27500
H1521       H  0.95810971  0.34243496  0.01246524     0.13300
N1522       N  0.96405557  0.34665929  0.06308729    -0.82400
H1523       H  0.89810734  0.28842922  0.06123699     0.18100
N1524       N  0.89298276  0.28371927  0.01085290    -0.81000
H1525       H  0.97525396  0.35670817  0.05007561     0.33800
H1526       H  0.95391109  0.36019696  0.07355454     0.38300
H1527       H  0.88212219  0.27318958  0.02377289     0.33700
H1528       H  0.88022971  0.29503027  0.00067872     0.30400
H1529       H  0.88820975  0.35909165  0.96390918     0.33700
H1530       H  0.88348149  0.33946592  0.98854157     0.30400
H1531       H  0.95018095  0.26020188  0.92536593     0.38300
H1532       H  0.97173996  0.26347227  0.94859009     0.33800
C1533       C  0.76873804  0.27092381  0.78742425    -0.20000
C1534       C  0.79043582  0.27689101  0.77254366     0.36200
C1535       C  0.81315319  0.28386009  0.78472028    -0.26000
C1536       C  0.81494490  0.28442733  0.81131849     0.02700
C1537       C  0.79324358  0.27912378  0.82616884     0.27500
C1538       C  0.77034027  0.27275727  0.81406807    -0.25100
N1539       N  0.78940835  0.27624571  0.74520791    -0.82500
H1540       H  0.82978618  0.28839533  0.77340317     0.13300
C1541       C  0.83990333  0.28964968  0.82335866     0.02600
N1542       N  0.79470467  0.27959908  0.85348755    -0.81000
H1543       H  0.75385845  0.26832961  0.82562968     0.18100
C1544       C  0.84206148  0.30944020  0.84114522    -0.25900
C1545       C  0.86504863  0.31398517  0.85393445     0.36200
C1546       C  0.88638191  0.29864763  0.84845029    -0.19900
C1547       C  0.88446097  0.27948020  0.82997898    -0.25200
C1548       C  0.86134280  0.27452356  0.81768002     0.27500
H1549       H  0.82565860  0.32124090  0.84518558     0.13300
N1550       N  0.86681765  0.33410956  0.87236936    -0.82400
H1551       H  0.90078388  0.26756679  0.82592239     0.18100
N1552       N  0.85935093  0.25372290  0.80002055    -0.81000
H1553       H  0.84936141  0.34343235  0.87429573     0.33800
H1554       H  0.87971992  0.34752138  0.86537192     0.38300
H1555       H  0.87686477  0.24454437  0.79793298     0.33700
H1556       H  0.84683405  0.24039675  0.80784414     0.30400
H1557       H  0.77701417  0.27545926  0.86158382     0.33700
H1558       H  0.80707254  0.26509242  0.85909471     0.30400
H1559       H  0.78913805  0.25715257  0.73970333     0.38300
H1560       H  0.80604094  0.28385112  0.73738015     0.33800
C1561       C  0.97964146  0.29179522  0.85131311    -0.20000
C1562       C  0.98317781  0.29547103  0.82485991     0.36200
C1563       C  0.00665909  0.28927841  0.81377542    -0.26000
C1564       C  0.02666355  0.27979463  0.82851234     0.02700
C1565       C  0.02332829  0.27616993  0.85481944     0.27500
C1566       C  0.99989721  0.28233447  0.86599440    -0.25100
N1567       N  0.96317882  0.30582196  0.80938469    -0.82500
H1568       H  0.00955554  0.29215336  0.79355940     0.13300
C1569       C  0.05111532  0.27387676  0.81607063     0.02600
N1570       N  0.04366493  0.26596509  0.86995762    -0.81000
H1571       H  0.99734056  0.27925029  0.88621428     0.18100
C1572       C  0.07264508  0.28822699  0.82230854    -0.25900
C1573       C  0.09617833  0.28341271  0.81063874     0.36200
C1574       C  0.09820183  0.26340050  0.79272641    -0.19900
C1575       C  0.07639139  0.24937797  0.78625585    -0.25200
C1576       C  0.05287981  0.25436574  0.79783322     0.27500
H1577       H  0.07093326  0.30346962  0.83609083     0.13300
N1578       N  0.11780963  0.29903165  0.81661448    -0.82400
H1579       H  0.07777772  0.23407300  0.77252020     0.18100
N1580       N  0.03083186  0.23953306  0.79142474    -0.81000
H1581       H  0.11308076  0.31265603  0.83032232     0.33800
H1582       H  0.12271221  0.30903926  0.80013558     0.38300
H1583       H  0.03529943  0.22599302  0.77754889     0.33700
H1584       H  0.02540627  0.22946922  0.80769951     0.30400
H1585       H  0.03815242  0.26452483  0.88902527     0.33700
H1586       H  0.04716019  0.24744348  0.86362242     0.30400
H1587       H  0.96007639  0.32452417  0.81535189     0.38300
H1588       H  0.96881538  0.30682332  0.79031712     0.33800
C1589       C  0.93580330  0.67163017  0.06778545    -0.20000
C1590       C  0.94765866  0.69084839  0.05329130     0.36200
C1591       C  0.94824089  0.68867945  0.02668365    -0.26000
C1592       C  0.93716671  0.66776163  0.01449933     0.02700
C1593       C  0.92560261  0.64840390  0.02893646     0.27500
C1594       C  0.92491950  0.65058979  0.05555810    -0.25100
N1595       N  0.95831664  0.71281266  0.06560385    -0.82500
H1596       H  0.95684097  0.70357564  0.01532629     0.13300
C1597       C  0.93619323  0.66729829  0.98648908     0.02600
N1598       N  0.91448368  0.62678262  0.01644733    -0.81000
H1599       H  0.91586396  0.63589740  0.06682537     0.18100
C1600       C  0.95409691  0.65306106  0.97285477    -0.25900
C1601       C  0.95359182  0.65239264  0.94611151     0.36200
C1602       C  0.93459489  0.66616513  0.93293168    -0.19900
C1603       C  0.91662338  0.68024563  0.94684867    -0.25200
C1604       C  0.91736096  0.68108930  0.97349182     0.27500
H1605       H  0.96850433  0.64253732  0.98314399     0.13300
N1606       N  0.97216718  0.63772017  0.93240472    -0.82400
H1607       H  0.90228012  0.69116036  0.93689902     0.18100
N1608       N  0.89932420  0.69619551  0.98746312    -0.81000
H1609       H  0.98492662  0.62907915  0.94494543     0.33800
H1610       H  0.96254244  0.62304603  0.92306369     0.38300
H1611       H  0.88697275  0.70557108  0.97504495     0.33700
H1612       H  0.88816332  0.68382043  0.99831468     0.30400
H1613       H  0.90699876  0.61411941  0.02983318     0.33700
H1614       H  0.89915613  0.63328135  0.00560938     0.30400
H1615       H  0.94338846  0.72271965  0.07424622     0.38300
H1616       H  0.96630887  0.72513929  0.05219097     0.33800
C1617       C  0.88354537  0.67500363  0.14513949    -0.20000
C1618       C  0.86142577  0.68312794  0.13205264     0.36200
C1619       C  0.83816752  0.68445514  0.14514091    -0.26000
C1620       C  0.83650069  0.67794353  0.17087960     0.02700
C1621       C  0.85803001  0.66842401  0.18360588     0.27500
C1622       C  0.88143307  0.66728563  0.17066407    -0.25100
N1623       N  0.86273456  0.69101764  0.10588704    -0.82500
H1624       H  0.82141983  0.69164465  0.13553608     0.13300
C1625       C  0.81275557  0.68385891  0.18471942     0.02600
N1626       N  0.85596661  0.65971504  0.20946127    -0.81000
H1627       H  0.89813472  0.66047358  0.18059231     0.18100
C1628       C  0.79207986  0.66709910  0.18347157    -0.25900
C1629       C  0.76871720  0.67328030  0.19504607     0.36200
C1630       C  0.76617915  0.69669918  0.20803245    -0.19900
C1631       C  0.78708045  0.71320687  0.20948125    -0.25200
C1632       C  0.81022756  0.70720513  0.19762876     0.27500
H1633       H  0.79414409  0.64932541  0.17323960     0.13300
N1634       N  0.74767486  0.65588083  0.19377702    -0.82400
H1635       H  0.78505679  0.73129682  0.21915087     0.18100
N1636       N  0.83079081  0.72524433  0.19755499    -0.81000
H1637       H  0.75265334  0.63964985  0.18340965     0.33800
H1638       H  0.74375091  0.64982680  0.21231572     0.38300
H1639       H  0.82551314  0.74188777  0.20708334     0.33700
H1640       H  0.84586963  0.71746667  0.20783669     0.30400
H1641       H  0.87345768  0.65280775  0.21586681     0.33700
H1642       H  0.85148406  0.67526656  0.22098549     0.30400
H1643       H  0.87361997  0.70762687  0.10516264     0.38300
H1644       H  0.84468574  0.69580606  0.09906374     0.33800
C1645       C  0.97700158  0.68716126  0.14986514    -0.20000
C1646       C  0.97693525  0.70081024  0.17308793     0.36200
C1647       C  0.00014788  0.70576450  0.18546726    -0.26000
C1648       C  0.02334939  0.69770535  0.17500934     0.02700
C1649       C  0.02347486  0.68412504  0.15193521     0.27500
C1650       C  0.00036095  0.67889345  0.13971002    -0.25100
N1651       N  0.95353124  0.71015834  0.18371311    -0.82500
H1652       H  0.00024559  0.71631745  0.20318228     0.13300
C1653       C  0.04752545  0.70440792  0.18787101     0.02600
N1654       N  0.04713639  0.67604931  0.14081819    -0.81000
H1655       H  0.00066472  0.66838063  0.12198235     0.18100
C1656       C  0.06320915  0.68506588  0.19731409    -0.25900
C1657       C  0.08652545  0.69068712  0.20918445     0.36200
C1658       C  0.09451066  0.71638299  0.21128181    -0.19900
C1659       C  0.07854944  0.73563561  0.20174553    -0.25200
C1660       C  0.05525265  0.72992122  0.19005695     0.27500
H1661       H  0.05710732  0.66546937  0.19549977     0.13300
N1662       N  0.10213748  0.67031833  0.21857421    -0.82400
H1663       H  0.08428289  0.75535318  0.20327165     0.18100
N1664       N  0.03954518  0.74991124  0.18003184    -0.81000
H1665       H  0.09437818  0.65268558  0.21366355     0.33800
H1666       H  0.10165148  0.67116105  0.23844246     0.38300
H1667       H  0.04786140  0.76766750  0.18328012     0.33700
H1668       H  0.03870368  0.74755939  0.16029211     0.30400
H1669       H  0.04393682  0.66615084  0.12386605     0.33700
H1670       H  0.05740725  0.69237159  0.13598152     0.30400
H1671       H  0.94639228  0.72389144  0.17126361     0.38300
H1672       H  0.95686034  0.71944360  0.20099864     0.33800
C1673       C  0.87136244  0.99020475  0.67942118    -0.20000
C1674       C  0.88448278  0.00980825  0.66652435     0.36200
C1675       C  0.91117133  0.00884137  0.66483323    -0.26000
C1676       C  0.92479496  0.98869296  0.67564603     0.02700
C1677       C  0.91181075  0.96893906  0.68812359     0.27500
C1678       C  0.88522855  0.96982951  0.68980415    -0.25100
N1679       N  0.87075300  0.03049010  0.65513336    -0.82500
H1680       H  0.92145484  0.02397204  0.65534770     0.13300
C1681       C  0.95280635  0.98933808  0.67559019     0.02600
N1682       N  0.92577724  0.94847387  0.69967546    -0.81000
H1683       H  0.87535118  0.95478960  0.69984584     0.18100
C1684       C  0.96521584  0.00008172  0.69654158    -0.25900
C1685       C  0.99182031  0.99987926  0.69820527     0.36200
C1686       C  0.00613702  0.98870157  0.67844668    -0.19900
C1687       C  0.99370500  0.97801497  0.65739725    -0.25200
C1688       C  0.96703598  0.97840126  0.65567653     0.27500
H1689       H  0.95402332  0.00824106  0.71183132     0.13300
N1690       N  0.00433097  0.01031995  0.72016592    -0.82400
H1691       H  0.00485060  0.96944842  0.64229867     0.18100
N1692       N  0.95435739  0.96790812  0.63385135    -0.81000
H1693       H  0.99102469  0.01784744  0.73291064     0.33800
H1694       H  0.01337319  0.99536234  0.72961738     0.38300
H1695       H  0.96763102  0.96097497  0.62074120     0.33700
H1696       H  0.94370072  0.95228314  0.63994663     0.30400
H1697       H  0.91340591  0.93571824  0.70859636     0.33700
H1698       H  0.93483934  0.93835958  0.68513515     0.30400
H1699       H  0.85958825  0.02293498  0.64052369     0.38300
H1700       H  0.88329068  0.04335298  0.64660141     0.33800
C1701       C  0.08293780  0.93659710  0.68311018    -0.20000
C1702       C  0.10941604  0.93254551  0.68042088     0.36200
C1703       C  0.11949773  0.90818014  0.68497729    -0.26000
C1704       C  0.10365132  0.88788580  0.69179382     0.02700
C1705       C  0.07722482  0.89144213  0.69308095     0.27500
C1706       C  0.06711809  0.91570784  0.68872966    -0.25100
N1707       N  0.12597639  0.95308342  0.67330009    -0.82500
H1708       H  0.13983947  0.90509022  0.68382461     0.13300
C1709       C  0.11502973  0.86350627  0.69968067     0.02600
N1710       N  0.06088325  0.87050235  0.69957781    -0.81000
H1711       H  0.04679382  0.91839694  0.69067964     0.18100
C1712       C  0.11761514  0.85857015  0.72570609    -0.25900
C1713       C  0.12863517  0.83587527  0.73436300     0.36200
C1714       C  0.13677790  0.81747075  0.71646116    -0.19900
C1715       C  0.13394653  0.82252831  0.69029414    -0.25200
C1716       C  0.12309367  0.84538905  0.68174249     0.27500
H1717       H  0.11135155  0.87275397  0.73930618     0.13300
N1718       N  0.13208606  0.83182316  0.76119383    -0.82400
H1719       H  0.14006961  0.80854186  0.67644009     0.18100
N1720       N  0.12026246  0.85034574  0.65500183    -0.81000
H1721       H  0.12464491  0.84701626  0.77166040     0.33800
H1722       H  0.15164850  0.83161748  0.76471731     0.38300
H1723       H  0.12732041  0.83514172  0.64428646     0.33700
H1724       H  0.10080226  0.85146346  0.65112988     0.30400
H1725       H  0.04188057  0.87633142  0.70006843     0.33700
H1726       H  0.06232119  0.85703713  0.68500835     0.30400
H1727       H  0.12101452  0.95864679  0.65486824     0.38300
H1728       H  0.14485512  0.94690685  0.67242712     0.33800
C1729       C  0.08783129  0.03004235  0.69480142    -0.20000
C1730       C  0.11145706  0.03575028  0.68336389     0.36200
C1731       C  0.12353505  0.05897751  0.68907782    -0.26000
C1732       C  0.11238484  0.07648648  0.70590743     0.02700
C1733       C  0.08910404  0.07047215  0.71776487     0.27500
C1734       C  0.07696352  0.04745405  0.71190511    -0.25100
N1735       N  0.12269056  0.01836304  0.66548486    -0.82500
H1736       H  0.14142054  0.06372416  0.67999399     0.13300
C1737       C  0.12486115  0.10133394  0.71079912     0.02600
N1738       N  0.07794785  0.08780281  0.73576551    -0.81000
H1739       H  0.05893972  0.04298358  0.72087218     0.18100
C1740       C  0.11227287  0.12373024  0.70382296    -0.25900
C1741       C  0.12256725  0.14777662  0.70936483     0.36200
C1742       C  0.14589047  0.14950445  0.72287141    -0.19900
C1743       C  0.15875674  0.12684492  0.72911629    -0.25200
C1744       C  0.14851839  0.10285243  0.72317667     0.27500
H1745       H  0.09423461  0.12237443  0.69396167     0.13300
N1746       N  0.10926458  0.17026564  0.70133549    -0.82400
H1747       H  0.17672572  0.12774563  0.73911103     0.18100
N1748       N  0.16179877  0.08000268  0.73010600    -0.81000
H1749       H  0.09201324  0.16555467  0.69265163     0.33800
H1750       H  0.12032867  0.17901061  0.68730600     0.38300
H1751       H  0.17904403  0.08435811  0.73897007     0.33700
H1752       H  0.15071825  0.07044223  0.74357502     0.30400
H1753       H  0.06077897  0.08058999  0.74275089     0.33700
H1754       H  0.09027681  0.08909494  0.75130378     0.30400
H1755       H  0.11061615  0.01725439  0.64973309     0.38300
H1756       H  0.14004953  0.02541757  0.65882252     0.33800
C1757       C  0.85791413  0.97997767  0.32501498    -0.20000
C1758       C  0.87019348  0.00181994  0.33487807     0.36200
C1759       C  0.89683354  0.00324834  0.33430879    -0.26000
C1760       C  0.91145593  0.98324553  0.32453681     0.02700
C1761       C  0.89938234  0.96100912  0.31574534     0.27500
C1762       C  0.87274535  0.95954812  0.31619639    -0.25100
N1763       N  0.85568121  0.02242368  0.34551028    -0.82500
H1764       H  0.90632053  0.02004380  0.34155648     0.13300
C1765       C  0.93944300  0.98590467  0.32359949     0.02600
N1766       N  0.91420991  0.94027665  0.30582121    -0.81000
H1767       H  0.86355839  0.94271993  0.30867567     0.18100
C1768       C  0.95457605  0.96863262  0.33707789    -0.25900
C1769       C  0.98119134  0.97032300  0.33642471     0.36200
C1770       C  0.99281983  0.98976723  0.32201126    -0.19900
C1771       C  0.97763444  0.00739772  0.30898330    -0.25200
C1772       C  0.95101702  0.00548064  0.30937691     0.27500
H1773       H  0.94552650  0.95384087  0.34821603     0.13300
N1774       N  0.99642254  0.95257324  0.35055159    -0.82400
H1775       H  0.98658724  0.02218649  0.29776172     0.18100
N1776       N  0.93569649  0.02296794  0.29501230    -0.81000
H1777       H  0.98490287  0.93941469  0.36001732     0.33800
H1778       H  0.00606863  0.96280981  0.36460334     0.38300
H1779       H  0.94715466  0.03622940  0.28561621     0.33700
H1780       H  0.92633479  0.01255806  0.28089202     0.30400
H1781       H  0.90243784  0.92525336  0.30027257     0.33700
H1782       H  0.92337116  0.94671261  0.28937317     0.30400
H1783       H  0.84645811  0.01552084  0.36173429     0.38300
H1784       H  0.86763701  0.03708706  0.35160480     0.33800
C1785       C  0.78018026  0.93019319  0.30958946    -0.20000
C1786       C  0.75434430  0.92593548  0.31575945     0.36200
C1787       C  0.74298477  0.90264238  0.30922106    -0.26000
C1788       C  0.75702047  0.88360737  0.29697537     0.02700
C1789       C  0.78295533  0.88739859  0.29164288     0.27500
C1790       C  0.79431925  0.91065860  0.29805009    -0.25100
N1791       N  0.73983167  0.94512499  0.32877058    -0.82500
H1792       H  0.72310068  0.89932233  0.31351983     0.13300
C1793       C  0.74428366  0.85985194  0.28931283     0.02600
N1794       N  0.79743462  0.86779976  0.27920903    -0.81000
H1795       H  0.81414228  0.91378312  0.29336101     0.18100
C1796       C  0.73471503  0.85771070  0.26452958    -0.25900
C1797       C  0.72332283  0.83503323  0.25618262     0.36200
C1798       C  0.72160167  0.81426555  0.27306698    -0.19900
C1799       C  0.73118668  0.81651336  0.29787130    -0.25200
C1800       C  0.74240599  0.83922505  0.30623525     0.27500
H1801       H  0.73642773  0.87369752  0.25164177     0.13300
N1802       N  0.71405111  0.83280809  0.23055645    -0.82400
H1803       H  0.72967258  0.80055078  0.31081485     0.18100
N1804       N  0.75173222  0.84153709  0.33183138    -0.81000
H1805       H  0.71676059  0.84983079  0.22065423     0.33800
H1806       H  0.72509256  0.81908097  0.22131053     0.38300
H1807       H  0.74851543  0.82473659  0.34196067     0.33700
H1808       H  0.77144094  0.84390812  0.33089217     0.30400
H1809       H  0.81617932  0.87374634  0.27628180     0.33700
H1810       H  0.79830125  0.85222166  0.29151649     0.30400
H1811       H  0.74791211  0.94759940  0.34676843     0.38300
H1812       H  0.72115718  0.93897883  0.33176521     0.33800
C1813       C  0.72616670  0.14480370  0.28114261    -0.20000
C1814       C  0.75186574  0.13867717  0.27636278     0.36200
C1815       C  0.76076277  0.11427349  0.28245567    -0.26000
C1816       C  0.74452816  0.09615079  0.29330595     0.02700
C1817       C  0.71920189  0.10254924  0.29910841     0.27500
C1818       C  0.71014845  0.12676559  0.29261204    -0.25100
N1819       N  0.76860905  0.15695026  0.26479642    -0.82500
H1820       H  0.78035442  0.10921176  0.27851722     0.13300
C1821       C  0.75472689  0.07079616  0.29925987     0.02600
N1822       N  0.70308161  0.08474846  0.31221135    -0.81000
H1823       H  0.69052875  0.13166484  0.29661380     0.18100
C1824       C  0.76878480  0.06770388  0.32161848    -0.25900
C1825       C  0.78020006  0.04433016  0.32738212     0.36200
C1826       C  0.77716354  0.02369546  0.31051488    -0.19900
C1827       C  0.76259891  0.02665575  0.28837270    -0.25200
C1828       C  0.75165441  0.05024361  0.28231878     0.27500
H1829       H  0.77115847  0.08372920  0.33436667     0.13300
N1830       N  0.79499162  0.04147323  0.35018172    -0.82400
H1831       H  0.76077579  0.01087425  0.27523361     0.18100
N1832       N  0.73866855  0.05378402  0.25851226    -0.81000
H1833       H  0.79552624  0.05852250  0.36039165     0.33800
H1834       H  0.78571949  0.02820938  0.36174327     0.38300
H1835       H  0.73888212  0.03698049  0.24787741     0.33700
H1836       H  0.71960193  0.05772373  0.26241010     0.30400
H1837       H  0.68522652  0.09277215  0.31572714     0.33700
H1838       H  0.70001164  0.06920557  0.30024932     0.30400
H1839       H  0.76199354  0.16039810  0.24636733     0.38300
H1840       H  0.78693095  0.14946494  0.26289978     0.33800
C1841       C  0.60805880  0.91768561  0.00683716    -0.20000
C1842       C  0.62236892  0.93302198  0.02362367     0.36200
C1843       C  0.61990597  0.95957329  0.02246798    -0.26000
C1844       C  0.60376106  0.97115606  0.00470335     0.02700
C1845       C  0.58888019  0.95589297  0.98847356     0.27500
C1846       C  0.59124531  0.92930492  0.98964242    -0.25100
N1847       N  0.64034444  0.92175550  0.04081288    -0.82500
H1848       H  0.63156855  0.97138684  0.03467374     0.13300
C1849       C  0.60443672  0.99923385  0.00201588     0.02600
N1850       N  0.57170620  0.96750451  0.97068635    -0.81000
H1851       H  0.58012384  0.91757906  0.97686016     0.18100
C1852       C  0.61213223  0.00984048  0.97877958    -0.25900
C1853       C  0.61633770  0.03612398  0.97624090     0.36200
C1854       C  0.61249008  0.05227651  0.99751127    -0.19900
C1855       C  0.60372126  0.04154208  0.02046488    -0.25200
C1856       C  0.59965011  0.01527928  0.02291083     0.27500
H1857       H  0.61600753  0.99735543  0.96282953     0.13300
N1858       N  0.62535204  0.04610204  0.95241842    -0.82400
H1859       H  0.60027712  0.05363895  0.03679399     0.18100
N1860       N  0.59095789  0.00474994  0.04661736    -0.81000
H1861       H  0.62610016  0.03181970  0.93859002     0.33800
H1862       H  0.64408145  0.05215891  0.95517504     0.38300
H1863       H  0.58847996  0.01907439  0.06019943     0.33700
H1864       H  0.57303508  0.99677373  0.04343096     0.30400
H1865       H  0.56223882  0.95363567  0.96004423     0.33700
H1866       H  0.55781615  0.97712481  0.98119109     0.30400
H1867       H  0.65474521  0.91354913  0.02981206     0.38300
H1868       H  0.64905670  0.93567029  0.05203425     0.33800
C1869       C  0.65910748  0.19558508  0.83396557    -0.20000
C1870       C  0.64876799  0.20922456  0.85472721     0.36200
C1871       C  0.64355551  0.19640926  0.87762337    -0.26000
C1872       C  0.64830119  0.17030543  0.88008148     0.02700
C1873       C  0.65856219  0.15665437  0.85942555     0.27500
C1874       C  0.66366045  0.16938279  0.83648744    -0.25100
N1875       N  0.64318573  0.23587442  0.85236071    -0.82500
H1876       H  0.63557550  0.20673068  0.89359919     0.13300
C1877       C  0.64284893  0.15749278  0.90456517     0.02600
N1878       N  0.66406476  0.13000644  0.86200193    -0.81000
H1879       H  0.67174752  0.15890688  0.82066863     0.18100
C1880       C  0.62332641  0.13938881  0.90583570    -0.25900
C1881       C  0.61798901  0.12646072  0.92864449     0.36200
C1882       C  0.63286039  0.13147776  0.95046588    -0.19900
C1883       C  0.65208764  0.14999970  0.94918551    -0.25200
C1884       C  0.65728910  0.16298304  0.92642186     0.27500
H1885       H  0.61211965  0.13551473  0.88898512     0.13300
N1886       N  0.59726336  0.10867650  0.92982402    -0.82400
H1887       H  0.66350594  0.15396233  0.96586742     0.18100
N1888       N  0.67739885  0.18146429  0.92526000    -0.81000
H1889       H  0.58829578  0.10719847  0.91214251     0.33800
H1890       H  0.58375153  0.11604001  0.94244823     0.38300
H1891       H  0.68615235  0.18337840  0.94300737     0.33700
H1892       H  0.69125507  0.17452964  0.91277282     0.30400
H1893       H  0.67155949  0.12274155  0.84505945     0.33700
H1894       H  0.67828197  0.12811590  0.87576387     0.30400
H1895       H  0.62888120  0.23780644  0.83870041     0.38300
H1896       H  0.63576969  0.24303044  0.86938829     0.33800
C1897       C  0.63415061  0.13013497  0.04389184    -0.20000
C1898       C  0.61590178  0.12959411  0.06357153     0.36200
C1899       C  0.62169713  0.14077289  0.08713627    -0.26000
C1900       C  0.64532656  0.15234532  0.09119460     0.02700
C1901       C  0.66346281  0.15315249  0.07147083     0.27500
C1902       C  0.65759761  0.14216976  0.04784283    -0.25100
N1903       N  0.59154214  0.11791436  0.05941577    -0.82500
H1904       H  0.60782539  0.14047513  0.10240030     0.13300
C1905       C  0.65084924  0.16381307  0.11617196     0.02600
N1906       N  0.68791283  0.16459993  0.07576147    -0.81000
H1907       H  0.67157363  0.14239674  0.03267123     0.18100
C1908       C  0.66263379  0.14908807  0.13497063    -0.25900
C1909       C  0.66900095  0.15971421  0.15867335     0.36200
C1910       C  0.66342362  0.18557081  0.16341531    -0.19900
C1911       C  0.65148103  0.20014236  0.14453556    -0.25200
C1912       C  0.64492550  0.18944108  0.12100108     0.27500
H1913       H  0.66709890  0.12936862  0.13097946     0.13300
N1914       N  0.68153664  0.14455605  0.17764704    -0.82400
H1915       H  0.64696917  0.21989206  0.14830592     0.18100
N1916       N  0.63197380  0.20433788  0.10210385    -0.81000
H1917       H  0.68407377  0.12593403  0.17114852     0.33800
H1918       H  0.69971567  0.15213685  0.18033945     0.38300
H1919       H  0.62855658  0.22272197  0.10887442     0.33700
H1920       H  0.64408634  0.20622040  0.08644555     0.30400
H1921       H  0.69923877  0.16317432  0.05946306     0.33700
H1922       H  0.68506986  0.18399958  0.07899578     0.30400
H1923       H  0.58220271  0.12838325  0.04533703     0.38300
H1924       H  0.58031745  0.11913979  0.07580520     0.33800
C1925       C  0.25048767  0.05623416  0.00309450    -0.20000
C1926       C  0.24116047  0.04031733  0.02272748     0.36200
C1927       C  0.24399471  0.01381699  0.02062361    -0.26000
C1928       C  0.25569105  0.00271901  0.99934068     0.02700
C1929       C  0.26540366  0.01848585  0.97996052     0.27500
C1930       C  0.26263766  0.04499746  0.98199664    -0.25100
N1931       N  0.22806224  0.05087998  0.04430588    -0.82500
H1932       H  0.23619276  0.00162059  0.03529540     0.13300
C1933       C  0.25606580  0.97453358  0.99705395     0.02600
N1934       N  0.27797106  0.00749406  0.95827384    -0.81000
H1935       H  0.27003129  0.05695211  0.96692879     0.18100
C1936       C  0.24439061  0.96299723  0.97601854    -0.25900
C1937       C  0.24198612  0.93648540  0.97441840     0.36200
C1938       C  0.25130100  0.92101746  0.99428850    -0.19900
C1939       C  0.26350481  0.93256140  0.01506177    -0.25200
C1940       C  0.26625251  0.95911911  0.01649972     0.27500
H1941       H  0.23627643  0.97468861  0.96112390     0.13300
N1942       N  0.22904432  0.92551494  0.95310628    -0.82400
H1943       H  0.27097019  0.92080513  0.03023642     0.18100
N1944       N  0.27924699  0.97055164  0.03765409    -0.81000
H1945       H  0.21070281  0.93316210  0.95237063     0.33800
H1946       H  0.23865033  0.93091883  0.93654987     0.38300
H1947       H  0.28554395  0.95661088  0.05035268     0.33700
H1948       H  0.29550054  0.97951449  0.03053418     0.30400
H1949       H  0.28389140  0.02166555  0.94564550     0.33700
H1950       H  0.29442134  0.99845967  0.96480352     0.30400
H1951       H  0.21103878  0.05872459  0.03771964     0.38300
H1952       H  0.22302637  0.03660831  0.05721120     0.33800
C1953       C  0.20486520  0.77755541  0.83220073    -0.20000
C1954       C  0.18728800  0.79201848  0.84668206     0.36200
C1955       C  0.19542729  0.80401813  0.86914138    -0.26000
C1956       C  0.22062695  0.80204407  0.87762893     0.02700
C1957       C  0.23809479  0.78737058  0.86356415     0.27500
C1958       C  0.23004243  0.77526857  0.84111884    -0.25100
N1959       N  0.16126583  0.79457747  0.83872595    -0.82500
H1960       H  0.18193899  0.81495060  0.88026917     0.13300
C1961       C  0.22826419  0.81582457  0.90113108     0.02600
N1962       N  0.26402488  0.78511704  0.87190473    -0.81000
H1963       H  0.24373963  0.76424420  0.83037046     0.18100
C1964       C  0.23891481  0.80243740  0.92163919    -0.25900
C1965       C  0.24454471  0.81477819  0.94467965     0.36200
C1966       C  0.23913627  0.84090166  0.94747771    -0.19900
C1967       C  0.22945624  0.85441796  0.92658464    -0.25200
C1968       C  0.22406871  0.84221707  0.90346959     0.27500
H1969       H  0.24243087  0.78220914  0.91994310     0.13300
N1970       N  0.25600954  0.80078155  0.96502145    -0.82400
H1971       H  0.22541710  0.87452370  0.92844434     0.18100
N1972       N  0.21411373  0.85648268  0.88238456    -0.81000
H1973       H  0.27314333  0.79317536  0.95836628     0.33800
H1974       H  0.24397680  0.78566804  0.96971085     0.38300
H1975       H  0.21190212  0.87562654  0.88727201     0.33700
H1976       H  0.22759933  0.85582770  0.86776666     0.30400
H1977       H  0.27441312  0.77350911  0.85952665     0.33700
H1978       H  0.27224547  0.80319111  0.87100428     0.30400
H1979       H  0.15268170  0.77674710  0.84059664     0.38300
H1980       H  0.15132973  0.80682942  0.85085544     0.33800
C1981       C  0.23330746  0.84231135  0.04148274    -0.20000
C1982       C  0.21779778  0.82040034  0.04301483     0.36200
C1983       C  0.21213535  0.80973681  0.06686650    -0.26000
C1984       C  0.22151237  0.82057903  0.08936230     0.02700
C1985       C  0.23687218  0.84250243  0.08798153     0.27500
C1986       C  0.24269642  0.85303862  0.06411485    -0.25100
N1987       N  0.20712047  0.80928406  0.02055612    -0.82500
H1988       H  0.20029329  0.79290061  0.06783363     0.13300
C1989       C  0.21538751  0.80874384  0.11428966     0.02600
N1990       N  0.24621980  0.85415183  0.11088917    -0.81000
H1991       H  0.25454966  0.86986007  0.06323839     0.18100
C1992       C  0.23526242  0.79987403  0.12962553    -0.25900
C1993       C  0.23053829  0.78922280  0.15369562     0.36200
C1994       C  0.20514120  0.78677683  0.16245434    -0.19900
C1995       C  0.18526038  0.79577326  0.14694864    -0.25200
C1996       C  0.19013063  0.80682608  0.12306168     0.27500
H1997       H  0.25465092  0.80152662  0.12281405     0.13300
N1998       N  0.25152616  0.78128032  0.16929052    -0.82400
H1999       H  0.16576592  0.79414055  0.15342170     0.18100
N2000       N  0.16956975  0.81631463  0.10776969    -0.81000
H2001       H  0.26878755  0.78383037  0.15973213     0.33800
H2002       H  0.25204553  0.79328451  0.18514845     0.38300
H2003       H  0.15213718  0.81339572  0.11689521     0.33700
H2004       H  0.17188574  0.83598893  0.10612332     0.30400
H2005       H  0.25732829  0.87008000  0.10661380     0.33700
H2006       H  0.23050882  0.86075535  0.12114905     0.30400
H2007       H  0.21311258  0.79035640  0.01953835     0.38300
H2008       H  0.18732660  0.80939106  0.02241232     0.33800
loop_ 
_geom_bond_atom_site_label_1 
_geom_bond_atom_site_label_2 
_geom_bond_distance 
_geom_bond_site_symmetry_2 
_ccdc_geom_bond_type 
C1            N2   1.361   1_554  A
C1            N6   1.360       .  A
C1         C1981   1.488       .  S
N2            C3   1.360       .  A
C3            N4   1.359       .  A
C3         C1966   1.483       .  S
N4            C5   1.356       .  A
C5            N6   1.358   1_556  A
C5         C1938   1.484       .  S
C7            N8   1.355       .  A
C7           N12   1.356   1_554  A
C7         C1897   1.470       .  S
N8            C9   1.358   1_554  A
C9           N10   1.361       .  A
C9         C1854   1.492       .  S
N10          C11   1.361       .  A
C11          N12   1.359       .  A
C11        C1882   1.483       .  S
C13          N14   1.357       .  A
C13          N18   1.354   1_565  A
C13        C1826   1.470   1_565  S
N14          C15   1.359       .  A
C15          N16   1.360       .  A
C15        C1785   1.480       .  S
N16          C17   1.359       .  A
C17          N18   1.355   1_565  A
C17        C1757   1.484       .  S
C19          N20   1.362   1_545  A
C19          N24   1.357       .  A
C19        C1729   1.480       .  S
N20          C21   1.363       .  A
C21          N22   1.359       .  A
C21        C1701   1.489       .  S
N22          C23   1.354       .  A
C23          N24   1.354   1_565  A
C23        C1686   1.470       .  S
C25          N26   1.358       .  A
C25          N30   1.362       .  A
C25        C1645   1.488       .  S
N26          C27   1.354       .  A
C27          N28   1.355       .  A
C27        C1589   1.470       .  S
N28          C29   1.358       .  A
C29          N30   1.363       .  A
C29        C1617   1.486       .  S
C31          N32   1.357       .  A
C31          N36   1.358       .  A
C31        C1546   1.475       .  S
N32          C33   1.356       .  A
C33          N34   1.356       .  A
C33        C1505   1.472       .  S
N34          C35   1.357       .  A
C35          N36   1.357       .  A
C35        C1561   1.482       .  S
C37          N38   1.357       .  A
C37          N42   1.359   1_556  A
C37        C1449   1.492       .  S
N38          C39   1.357   1_556  A
C39          N40   1.359       .  A
C39        C1841   1.481       .  S
N40          C41   1.359       .  A
C41          N42   1.358       .  A
C41        C1477   1.482       .  S
C43          N44   1.361       .  A
C43          N48   1.363       .  A
C43        C1434   1.498       .  S
N44          C45   1.360   1_554  A
C45          N46   1.357       .  A
C45        C1406   1.487       .  S
N46          C47   1.357   1_556  A
C47          N48   1.360       .  A
C47        C1925   1.491       .  S
C49          N50   1.362       .  A
C49          N54   1.357   1_545  A
C49        C1378   1.483       .  S
N50          C51   1.361   1_545  A
C51          N52   1.356       .  A
C51        C1673   1.482       .  S
N52          C53   1.355       .  A
C53          N54   1.356       .  A
C53        C1337   1.483       .  S
C55          N56   1.358       .  A
C55          N60   1.357       .  A
C55        C1294   1.487       .  S
N56          C57   1.360   1_565  A
C57          N58   1.358       .  A
C57        C1322   1.486       .  S
N58          C59   1.358   1_545  A
C59          N60   1.356       .  A
C59        C1770   1.475   1_455  S
C61          N62   1.357       .  A
C61          N66   1.359       .  A
C61        C1225   1.486       .  S
N62          C63   1.357       .  A
C63          N64   1.357       .  A
C63        C1253   1.477       .  S
N64          C65   1.357       .  A
C65          N66   1.360       .  A
C65        C1602   1.482       .  S
C67          N68   1.355       .  A
C67          N72   1.360       .  A
C67        C1182   1.482       .  S
N68          C69   1.355       .  A
C69          N70   1.357       .  A
C69        C1518   1.476       .  S
N70          C71   1.359       .  A
C71          N72   1.361       .  A
C71        C1197   1.483       .  S
C73          N74   1.357       .  A
C73          N78   1.354       .  A
C73        C1141   1.475       .  S
N74          C75   1.359       .  A
C75          N76   1.359       .  A
C75        C1085   1.492       .  S
N76          C77   1.358       .  A
C77          N78   1.356       .  A
C77        C1126   1.480       .  S
C79          N80   1.359       .  A
C79          N84   1.358       .  A
C79        C1029   1.491       .  S
N80          C81   1.359       .  A
C81          N82   1.359       .  A
C81        C1001   1.489       .  S
N82          C83   1.359       .  A
C83          N84   1.358       .  A
C83        C1057   1.483       .  S
C85          N86   1.360       .  A
C85          N90   1.362       .  A
C85         C973   1.487       .  S
N86          C87   1.358       .  A
C87          N88   1.356       .  A
C87         C917   1.483       .  S
N88          C89   1.358       .  A
C89          N90   1.360       .  A
C89         C958   1.495       .  S
O91         C107   1.272       .  A
O91         Zn97   2.006       .  S
C92        C1113   1.479       .  S
C92         O108   1.273       .  A
C92         O105   1.273       .  A
O93         C106   1.276       .  A
O93        Cd100   2.078       .  S
O94         C112   1.274       .  A
O94        Cd103   2.066       .  S
O95         C109   1.274       .  A
O95         Cd99   2.063       .  S
O96         C107   1.274       .  A
O96         Cd99   2.064       .  S
Zn97        O108   2.006       .  S
Zn97        O110   2.003       .  S
Zn97        O102   1.935       .  S
O98         C109   1.273       .  A
O98        Cd103   2.060       .  S
Cd99        O101   2.068       .  S
Cd99        O102   1.995       .  S
Cd100       O104   2.087       .  S
Cd100       O113   2.088       .  S
Cd100       O102   2.002       .  S
O101        C111   1.275       .  A
O102       Cd103   1.996       .  S
Cd103       O105   2.065       .  S
O104        C111   1.278       .  A
C106        C889   1.487       .  S
C106        O110   1.274       .  A
C107        C986   1.487       .  S
C109       C1574   1.480       .  S
C111       C1742   1.497       .  S
C112       C1393   1.494       .  S
C112        O113   1.279       .  A
C114        N115   1.356       .  A
C114        N119   1.357       .  A
C114        C874   1.483       .  S
N115        C116   1.358       .  A
C116        N117   1.361       .  A
C116        C846   1.488       .  S
N117        C118   1.360       .  A
C118        N119   1.358       .  A
C118        C818   1.483       .  S
C120        N121   1.358       .  A
C120        N125   1.360       .  A
C120        C902   1.488       .  S
N121        C122   1.357       .  A
C122        N123   1.357       .  A
C122        C749   1.480       .  S
N123        C124   1.358       .  A
C124        N125   1.361       .  A
C124        C777   1.493       .  S
O126        C142   1.273       .  A
O126       Zn132   2.015       .  S
C127        C861   1.492       .  S
C127        O143   1.274       .  A
C127        O140   1.273       .  A
O128        C141   1.276       .  A
O128       Cd135   2.077       .  S
O129        C147   1.275       .  A
O129       Cd138   2.074       .  S
O130        C144   1.276       .  A
O130       Cd134   2.074       .  S
O131        C142   1.276       .  A
O131       Cd134   2.082       .  S
Zn132       O143   2.012       .  S
Zn132       O145   2.006       .  S
Zn132       O137   1.935       .  S
O133        C144   1.273       .  A
O133       Cd138   2.062       .  S
Cd134       O136   2.074       .  S
Cd134       O137   2.005       .  S
Cd135       O139   2.072       .  S
Cd135       O148   2.076       .  S
Cd135       O137   2.005       .  S
O136        C146   1.276       .  A
O137       Cd138   1.997       .  S
Cd138       O140   2.068       .  S
O139        C146   1.276       .  A
C141        C790   1.485       .  S
C141        O145   1.273       .  A
C142        C721   1.496       .  S
C144       C1533   1.486       .  S
C146       C1869   1.482       .  S
C147       C1365   1.485       .  S
C147        O148   1.275       .  A
C149        N150   1.354       .  A
C149        N154   1.357       .  A
C149        C706   1.480       .  S
N150        C151   1.354       .  A
C151        N152   1.361       .  A
C151        C665   1.478       .  S
N152        C153   1.362       .  A
C153        N154   1.361       .  A
C153        C930   1.484       .  S
O155        C171   1.275       .  A
O155       Zn161   2.032       .  S
C156       C1714   1.485       .  S
C156        O172   1.276       .  A
C156        O169   1.273       .  A
O157        C170   1.273       .  A
O157       Cd164   2.057       .  S
O158        C176   1.274       .  A
O158       Cd167   2.074       .  S
O159        C173   1.273       .  A
O159       Cd163   2.056       .  S
O160        C171   1.273       .  A
O160       Cd163   2.061       .  S
Zn161       O172   2.023       .  S
Zn161       O174   2.023       .  S
Zn161       O166   1.942       .  S
O162        C173   1.276       .  A
O162       Cd167   2.074       .  S
Cd163       O165   2.055       .  S
Cd163       O166   1.992       .  S
Cd164       O168   2.060       .  S
Cd164       O177   2.069       .  S
Cd164       O166   1.997       .  S
O165        C175   1.272       .  A
O166       Cd167   1.998       .  S
Cd167       O169   2.058       .  S
O168        C175   1.274       .  A
C170       C1266   1.482       .  S
C170        O174   1.276       .  A
C171       C1953   1.494       .  S
C173        C637   1.482       .  S
C175       C1154   1.484       .  S
C176        C693   1.473       .  S
C176        O177   1.274       .  A
C178        N179   1.356       .  A
C178        N183   1.359       .  A
C178        C609   1.475       .  S
N179        C180   1.354       .  A
C180        N181   1.356       .  A
C180       C1098   1.469       .  S
N181        C182   1.360       .  A
C182        N183   1.361       .  A
C182        C734   1.484       .  S
C184        N185   1.362       .  A
C184        N189   1.359       .  A
C184        C650   1.489       .  S
N185        C186   1.362       .  A
C186        N187   1.359       .  A
C186        C581   1.484       .  S
N187        C188   1.356       .  A
C188        N189   1.356       .  A
C188        C553   1.481       .  S
C190        N191   1.356       .  A
C190        N195   1.358       .  A
C190        C525   1.484       .  S
N191        C192   1.356       .  A
C192        N193   1.359       .  A
C192        C805   1.476       .  S
N193        C194   1.361       .  A
C194        N195   1.358       .  A
C194        C497   1.481       .  S
O196        C212   1.274       .  A
O196       Zn202   2.016       .  S
C197       C1462   1.483       .  S
C197        O213   1.274       .  A
C197        O210   1.276       .  A
O198        C211   1.273       .  A
O198       Cd205   2.064       .  S
O199        C217   1.275       .  A
O199       Cd208   2.069       .  S
O200        C214   1.277       .  A
O200       Cd204   2.086       .  S
O201        C212   1.274       .  A
O201       Cd204   2.057       .  S
Zn202       O213   2.011       .  S
Zn202       O215   2.030       .  S
Zn202       O207   1.944       .  S
O203        C214   1.276       .  A
O203       Cd208   2.075       .  S
Cd204       O206   2.072       .  S
Cd204       O207   2.001       .  S
Cd205       O209   2.054       .  S
Cd205       O218   2.056       .  S
Cd205       O207   1.993       .  S
O206        C216   1.274       .  A
O207       Cd208   1.998       .  S
Cd208       O210   2.072       .  S
O209        C216   1.273       .  A
C211       C1238   1.493       .  S
C211        O215   1.276       .  A
C212       C1350   1.474       .  S
C214        C594   1.486       .  S
C216        C510   1.476       .  S
C217        C622   1.478       .  S
C217        O218   1.273       .  A
C219        N220   1.357       .  A
C219        N224   1.360       .  A
C219        C469   1.489       .  S
N220        C221   1.354       .  A
C221        N222   1.357       .  A
C221        C762   1.479       .  S
N222        C223   1.361       .  A
C223        N224   1.361       .  A
C223        C441   1.495       .  S
O225        C241   1.272       .  A
O225       Zn231   1.993       .  S
C226        C454   1.487       .  S
C226        O242   1.273       .  A
C226        O239   1.274       .  A
O227        C240   1.276       .  A
O227       Cd234   2.076       .  S
O228        C246   1.273       .  A
O228       Cd237   2.051       .  S
O229        C243   1.275       .  A
O229       Cd233   2.066       .  S
O230        C241   1.274       .  A
O230       Cd233   2.071       .  S
Zn231       O242   2.013       .  S
Zn231       O244   2.004       .  S
Zn231       O236   1.929       .  S
O232        C243   1.274       .  A
O232       Cd237   2.067       .  S
Cd233       O235   2.068       .  S
Cd233       O236   1.999       .  S
Cd234       O238   2.069       .  S
Cd234       O247   2.072       .  S
Cd234       O236   2.002       .  S
O235        C245   1.276       .  A
O236       Cd237   1.995       .  S
Cd237       O239   2.069       .  S
O238        C245   1.274       .  A
C240        C833   1.490       .  S
C240        O244   1.272       .  A
C241        C413   1.480       .  S
C243       C1910   1.475       .  S
C245       C1169   1.489       .  S
C246       C1813   1.473       .  S
C246        O247   1.275       .  A
C248        N249   1.360       .  A
C248        N253   1.357       .  A
C248        C385   1.492       .  S
N249        C250   1.359       .  A
C250        N251   1.358       .  A
C250        C566   1.480       .  S
N251        C252   1.358       .  A
C252        N253   1.356       .  A
C252        C357   1.481       .  S
C254        N255   1.354       .  A
C254        N259   1.358       .  A
C254        C329   1.479       .  S
N255        C256   1.355       .  A
C256        N257   1.359       .  A
C256        C426   1.478       .  S
N257        C258   1.359       .  A
C258        N259   1.360       .  A
C258       C1014   1.489       .  S
O260        C276   1.273       .  A
O260       Zn266   2.009       .  S
C261        C398   1.488       .  S
C261        O277   1.275       .  A
C261        O274   1.272       .  A
O262        C275   1.275       .  A
O262       Cd269   2.064       .  S
O263        C281   1.273       .  A
O263       Cd272   2.052       .  S
O264        C278   1.274       .  A
O264       Cd268   2.061       .  S
O265        C276   1.274       .  A
O265       Cd268   2.058       .  S
Zn266       O277   2.026       .  S
Zn266       O279   2.007       .  S
Zn266       O271   1.940       .  S
O267        C278   1.274       .  A
O267       Cd272   2.069       .  S
Cd268       O270   2.070       .  S
Cd268       O271   1.993       .  S
Cd269       O273   2.071       .  S
Cd269       O282   2.075       .  S
Cd269       O271   1.999       .  S
O270        C280   1.275       .  A
O271       Cd272   1.993       .  S
Cd272       O274   2.059       .  S
O273        C280   1.274       .  A
C275        C342   1.489       .  S
C275        O279   1.273       .  A
C276        C538   1.486       .  S
C278       C1798   1.472       .  S
C280       C1630   1.479       .  S
C281       C1490   1.471       .  S
C281        O282   1.275       .  A
O283        C299   1.276       .  A
O283       Zn289   2.023       .  S
C284       C1281   1.492       .  S
C284        O300   1.276       .  A
C284        O297   1.273       .  A
O285        C298   1.275       .  A
O285       Cd292   2.070       .  S
O286        C304   1.276       .  A
O286       Cd295   2.073       .  S
O287        C301   1.274       .  A
O287       Cd291   2.057       .  S
O288        C299   1.274       .  A
O288       Cd291   2.070       .  S
Zn289       O300   2.022       .  S
Zn289       O302   2.029       .  S
Zn289       O294   1.944       .  S
O290        C301   1.274       .  A
O290       Cd295   2.079       .  S
Cd291       O293   2.060       .  S
Cd291       O294   1.994       .  S
Cd292       O296   2.076       .  S
Cd292       O305   2.067       .  S
Cd292       O294   1.999       .  S
O293        C303   1.273       .  A
O294       Cd295   2.004       .  S
Cd295       O297   2.062       .  S
O296        C303   1.275       .  A
C298       C1994   1.492       .  S
C298        O302   1.276       .  A
C299       C1658   1.493       .  S
C301        C678   1.488       .  S
C303       C1070   1.475       .  S
C304        C370   1.480       .  S
C304        O305   1.275       .  A
O306        C322   1.276       .  A
O306       Zn312   2.023       .  S
C307        C945   1.491       .  S
C307        O323   1.276       .  A
C307        O320   1.276       .  A
O308        C321   1.273       .  A
O308       Cd315   2.063       .  S
O309        C327   1.274       .  A
O309       Cd318   2.064       .  S
O310        C324   1.274       .  A
O310       Cd314   2.069       .  S
O311        C322   1.274       .  A
O311       Cd314   2.065       .  S
Zn312       O323   2.027       .  S
Zn312       O325   2.021       .  S
Zn312       O317   1.946       .  S
O313        C324   1.277       .  A
O313       Cd318   2.084       .  S
Cd314       O316   2.073       .  S
Cd314       O317   1.997       .  S
Cd315       O319   2.084       .  S
Cd315       O328   2.076       .  S
Cd315       O317   2.002       .  S
O316        C326   1.275       .  A
O317       Cd318   2.001       .  S
Cd318       O320   2.078       .  S
O319        C326   1.276       .  A
C321        C482   1.489       .  S
C321        O325   1.275       .  A
C322       C1042   1.493       .  S
C324       C1210   1.481       .  S
C326       C1421   1.478       .  S
C327       C1309   1.480       .  S
C327        O328   1.276       .  A
C329        C330   1.414       .  A
C329        C334   1.407       .  A
C330        C331   1.404       .  A
C330        N335   1.438       .  S
C331        C332   1.400       .  A
C331        H336   1.084       .  S
C332        C337   1.473       .  S
C332        C333   1.406       .  A
C333        C334   1.402       .  A
C333        N338   1.438       .  S
C334        H339   1.083       .  S
N335        H355   1.046       .  S
N335        H356   1.046       .  S
C337        C340   1.398       .  A
C337        C344   1.404       .  A
N338        H353   1.046       .  S
N338        H354   1.046       .  S
C340        C341   1.403       .  A
C340        H345   1.084       .  S
C341        C342   1.420       .  A
C341        N346   1.438       .  S
C342        C343   1.410       .  A
C343        C344   1.403       .  A
C343        H347   1.083       .  S
C344        N348   1.438       .  S
N346        H349   1.046       .  S
N346        H350   1.046       .  S
N348        H351   1.046       .  S
N348        H352   1.046       .  S
C357        C358   1.415       .  A
C357        C362   1.404       .  A
C358        C359   1.407       .  A
C358        N363   1.437       .  S
C359        C360   1.400       .  A
C359        H364   1.084       .  S
C360        C365   1.475       .  S
C360        C361   1.407       .  A
C361        C362   1.403       .  A
C361        N366   1.439       .  S
C362        H367   1.084       .  S
N363        H383   1.045       .  S
N363        H384   1.046       .  S
C365        C368   1.399       .  A
C365        C372   1.408       .  A
N366        H381   1.046       .  S
N366        H382   1.044       .  S
C368        C369   1.404       .  A
C368        H373   1.084       .  S
C369        C370   1.415       .  A
C369        N374   1.438       .  S
C370        C371   1.405       .  A
C371        C372   1.406       .  A
C371        H375   1.084       .  S
C372        N376   1.438       .  S
N374        H377   1.046       .  S
N374        H378   1.046       .  S
N376        H379   1.046       .  S
N376        H380   1.044       .  S
C385        C386   1.421       .  A
C385        C390   1.410       .  A
C386        C387   1.403       .  A
C386        N391   1.437       .  S
C387        C388   1.397       .  A
C387        H392   1.084       .  S
C388        C393   1.477       .  S
C388        C389   1.406       .  A
C389        C390   1.406       .  A
C389        N394   1.438       .  S
C390        H395   1.083       .  S
N391        H411   1.045       .  S
N391        H412   1.046       .  S
C393        C396   1.398       .  A
C393        C400   1.407       .  A
N394        H409   1.046       .  S
N394        H410   1.046       .  S
C396        C397   1.405       .  A
C396        H401   1.084       .  S
C397        C398   1.419       .  A
C397        N402   1.438       .  S
C398        C399   1.407       .  A
C399        C400   1.404       .  A
C399        H403   1.083       .  S
C400        N404   1.438       .  S
N402        H405   1.046       .  S
N402        H406   1.045       .  S
N404        H407   1.046       .  S
N404        H408   1.045       .  S
C413        C414   1.415       .  A
C413        C418   1.406       .  A
C414        C415   1.407       .  A
C414        N419   1.438       .  S
C415        C416   1.401       .  A
C415        H420   1.084       .  S
C416        C421   1.473       .  S
C416        C417   1.405       .  A
C417        C418   1.399       .  A
C417        N422   1.438       .  S
C418        H423   1.084       .  S
N419        H439   1.046       .  S
N419        H440   1.046       .  S
C421        C424   1.400       .  A
C421        C428   1.406       .  A
N422        H437   1.046       .  S
N422        H438   1.046       .  S
C424        C425   1.402       .  A
C424        H429   1.084       .  S
C425        C426   1.412       .  A
C425        N430   1.437       .  S
C426        C427   1.407       .  A
C427        C428   1.403       .  A
C427        H431   1.084       .  S
C428        N432   1.438       .  S
N430        H433   1.046       .  S
N430        H434   1.046       .  S
N432        H435   1.046       .  S
N432        H436   1.046       .  S
C441        C442   1.420       .  A
C441        C446   1.409       .  A
C442        C443   1.407       .  A
C442        N447   1.437       .  S
C443        C444   1.401       .  A
C443        H448   1.084       .  S
C444        C449   1.485       .  S
C444        C445   1.408       .  A
C445        C446   1.403       .  A
C445        N450   1.438       .  S
C446        H451   1.083       .  S
N447        H467   1.045       .  S
N447        H468   1.046       .  S
C449        C452   1.402       .  A
C449        C456   1.409       .  A
N450        H465   1.046       .  S
N450        H466   1.046       .  S
C452        C453   1.404       .  A
C452        H457   1.084       .  S
C453        C454   1.417       .  A
C453        N458   1.438       .  S
C454        C455   1.408       .  A
C455        C456   1.406       .  A
C455        H459   1.083       .  S
C456        N460   1.438       .  S
N458        H461   1.046       .  S
N458        H462   1.046       .  S
N460        H463   1.045       .  S
N460        H464   1.046       .  S
C469        C470   1.418       .  A
C469        C474   1.408       .  A
C470        C471   1.407       .  A
C470        N475   1.437       .  S
C471        C472   1.401       .  A
C471        H476   1.084       .  S
C472        C477   1.478       .  S
C472        C473   1.405       .  A
C473        C474   1.401       .  A
C473        N478   1.438       .  S
C474        H479   1.083       .  S
N475        H495   1.045       .  S
N475        H496   1.046       .  S
C477        C480   1.399       .  A
C477        C484   1.406       .  A
N478        H493   1.046       .  S
N478        H494   1.046       .  S
C480        C481   1.405       .  A
C480        H485   1.084       .  S
C481        C482   1.419       .  A
C481        N486   1.438       .  S
C482        C483   1.409       .  A
C483        C484   1.404       .  A
C483        H487   1.083       .  S
C484        N488   1.438       .  S
N486        H489   1.046       .  S
N486        H490   1.045       .  S
N488        H491   1.046       .  S
N488        H492   1.046       .  S
C497        C498   1.413       .  A
C497        C502   1.406       .  A
C498        C499   1.404       .  A
C498        N503   1.438       .  S
C499        C500   1.403       .  A
C499        H504   1.084       .  S
C500        C505   1.481       .  S
C500        C501   1.409       .  A
C501        C502   1.404       .  A
C501        N506   1.438       .  S
C502        H507   1.084       .  S
N503        H523   1.046       .  S
N503        H524   1.045       .  S
C505        C508   1.404       .  A
C505        C512   1.409       .  A
N506        H521   1.046       .  S
N506        H522   1.045       .  S
C508        C509   1.407       .  A
C508        H513   1.084       .  S
C509        C510   1.412       .  A
C509        N514   1.438       .  S
C510        C511   1.403       .  A
C511        C512   1.401       .  A
C511        H515   1.084       .  S
C512        N516   1.438       .  S
N514        H517   1.046       .  S
N514        H518   1.046       .  S
N516        H519   1.046       .  S
N516        H520   1.046       .  S
C525        C526   1.416       .  A
C525        C530   1.407       .  A
C526        C527   1.403       .  A
C526        N531   1.437       .  S
C527        C528   1.399       .  A
C527        H532   1.084       .  S
C528        C533   1.476       .  S
C528        C529   1.407       .  A
C529        C530   1.403       .  A
C529        N534   1.438       .  S
C530        H535   1.083       .  S
N531        H551   1.046       .  S
N531        H552   1.045       .  S
C533        C536   1.399       .  A
C533        C540   1.406       .  A
N534        H549   1.046       .  S
N534        H550   1.046       .  S
C536        C537   1.403       .  A
C536        H541   1.084       .  S
C537        C538   1.418       .  A
C537        N542   1.438       .  S
C538        C539   1.408       .  A
C539        C540   1.403       .  A
C539        H543   1.083       .  S
C540        N544   1.438       .  S
N542        H545   1.046       .  S
N542        H546   1.046       .  S
N544        H547   1.046       .  S
N544        H548   1.046       .  S
C553        C554   1.415       .  A
C553        C558   1.405       .  A
C554        C555   1.405       .  A
C554        N559   1.438       .  S
C555        C556   1.400       .  A
C555        H560   1.084       .  S
C556        C561   1.477       .  S
C556        C557   1.409       .  A
C557        C558   1.406       .  A
C557        N562   1.439       .  S
C558        H563   1.084       .  S
N559        H579   1.045       .  S
N559        H580   1.046       .  S
C561        C564   1.401       .  A
C561        C568   1.409       .  A
N562        H577   1.046       .  S
N562        H578   1.044       .  S
C564        C565   1.407       .  A
C564        H569   1.084       .  S
C565        C566   1.414       .  A
C565        N570   1.438       .  S
C566        C567   1.404       .  A
C567        C568   1.404       .  A
C567        H571   1.084       .  S
C568        N572   1.439       .  S
N570        H573   1.046       .  S
N570        H574   1.046       .  S
N572        H575   1.046       .  S
N572        H576   1.043       .  S
C581        C582   1.413       .  A
C581        C586   1.406       .  A
C582        C583   1.410       .  A
C582        N587   1.437       .  S
C583        C584   1.403       .  A
C583        H588   1.084       .  S
C584        C589   1.481       .  S
C584        C585   1.407       .  A
C585        C586   1.404       .  A
C585        N590   1.438       .  S
C586        H591   1.084       .  S
N587        H607   1.046       .  S
N587        H608   1.046       .  S
C589        C592   1.400       .  A
C589        C596   1.409       .  A
N590        H605   1.046       .  S
N590        H606   1.045       .  S
C592        C593   1.406       .  A
C592        H597   1.084       .  S
C593        C594   1.415       .  A
C593        N598   1.438       .  S
C594        C595   1.406       .  A
C595        C596   1.409       .  A
C595        H599   1.084       .  S
C596        N600   1.438       .  S
N598        H601   1.046       .  S
N598        H602   1.046       .  S
N600        H603   1.046       .  S
N600        H604   1.045       .  S
C609        C610   1.413       .  A
C609        C614   1.404       .  A
C610        C611   1.401       .  A
C610        N615   1.438       .  S
C611        C612   1.398       .  A
C611        H616   1.084       .  S
C612        C617   1.472       .  S
C612        C613   1.408       .  A
C613        C614   1.406       .  A
C613        N618   1.438       .  S
C614        H619   1.084       .  S
N615        H635   1.046       .  S
N615        H636   1.046       .  S
C617        C620   1.400       .  A
C617        C624   1.406       .  A
N618        H633   1.046       .  S
N618        H634   1.045       .  S
C620        C621   1.405       .  A
C620        H625   1.084       .  S
C621        C622   1.414       .  A
C621        N626   1.438       .  S
C622        C623   1.405       .  A
C623        C624   1.402       .  A
C623        H627   1.084       .  S
C624        N628   1.438       .  S
N626        H629   1.046       .  S
N626        H630   1.046       .  S
N628        H631   1.046       .  S
N628        H632   1.045       .  S
C637        C638   1.413       .  A
C637        C642   1.406       .  A
C638        C639   1.405       .  A
C638        N643   1.438       .  S
C639        C640   1.403       .  A
C639        H644   1.084       .  S
C640        C645   1.482       .  S
C640        C641   1.408       .  A
C641        C642   1.404       .  A
C641        N646   1.438       .  S
C642        H647   1.084       .  S
N643        H663   1.046       .  S
N643        H664   1.046       .  S
C645        C648   1.402       .  A
C645        C652   1.407       .  A
N646        H661   1.046       .  S
N646        H662   1.046       .  S
C648        C649   1.408       .  A
C648        H653   1.084       .  S
C649        C650   1.415       .  A
C649        N654   1.437       .  S
C650        C651   1.408       .  A
C651        C652   1.403       .  A
C651        H655   1.083       .  S
C652        N656   1.438       .  S
N654        H657   1.046       .  S
N654        H658   1.045       .  S
N656        H659   1.046       .  S
N656        H660   1.046       .  S
C665        C666   1.410       .  A
C665        C670   1.405       .  A
C666        C667   1.405       .  A
C666        N671   1.438       .  S
C667        C668   1.406       .  A
C667        H672   1.084       .  S
C668        C673   1.486       .  S
C668        C669   1.410       .  A
C669        C670   1.404       .  A
C669        N674   1.438       .  S
C670        H675   1.084       .  S
N671        H691   1.046       .  S
N671        H692   1.046       .  S
C673        C676   1.404       .  A
C673        C680   1.408       .  A
N674        H689   1.046       .  S
N674        H690   1.046       .  S
C676        C677   1.409       .  A
C676        H681   1.084       .  S
C677        C678   1.417       .  A
C677        N682   1.438       .  S
C678        C679   1.407       .  A
C679        C680   1.401       .  A
C679        H683   1.083       .  S
C680        N684   1.438       .  S
N682        H685   1.046       .  S
N682        H686   1.045       .  S
N684        H687   1.046       .  S
N684        H688   1.046       .  S
C693        C694   1.410       .  A
C693        C698   1.403       .  A
C694        C695   1.404       .  A
C694        N699   1.438       .  S
C695        C696   1.401       .  A
C695        H700   1.084       .  S
C696        C701   1.475       .  S
C696        C697   1.409       .  A
C697        C698   1.406       .  A
C697        N702   1.438       .  S
C698        H703   1.084       .  S
N699        H719   1.046       .  S
N699        H720   1.046       .  S
C701        C704   1.401       .  A
C701        C708   1.407       .  A
N702        H717   1.046       .  S
N702        H718   1.044       .  S
C704        C705   1.408       .  A
C704        H709   1.084       .  S
C705        C706   1.414       .  A
C705        N710   1.437       .  S
C706        C707   1.406       .  A
C707        C708   1.401       .  A
C707        H711   1.084       .  S
C708        N712   1.438       .  S
N710        H713   1.046       .  S
N710        H714   1.046       .  S
N712        H715   1.045       .  S
N712        H716   1.045       .  S
C721        C722   1.421       .  A
C721        C726   1.410       .  A
C722        C723   1.406       .  A
C722        N727   1.438       .  S
C723        C724   1.400       .  A
C723        H728   1.084       .  S
C724        C729   1.484       .  S
C724        C725   1.408       .  A
C725        C726   1.407       .  A
C725        N730   1.438       .  S
C726        H731   1.083       .  S
N727        H747   1.046       .  S
N727        H748   1.046       .  S
C729        C732   1.402       .  A
C729        C736   1.409       .  A
N730        H745   1.046       .  S
N730        H746   1.046       .  S
C732        C733   1.406       .  A
C732        H737   1.084       .  S
C733        C734   1.414       .  A
C733        N738   1.438       .  S
C734        C735   1.406       .  A
C735        C736   1.405       .  A
C735        H739   1.084       .  S
C736        N740   1.438       .  S
N738        H741   1.046       .  S
N738        H742   1.046       .  S
N740        H743   1.046       .  S
N740        H744   1.045       .  S
C749        C750   1.414       .  A
C749        C754   1.406       .  A
C750        C751   1.404       .  A
C750        N755   1.438       .  S
C751        C752   1.399       .  A
C751        H756   1.084       .  S
C752        C757   1.476       .  S
C752        C753   1.409       .  A
C753        C754   1.406       .  A
C753        N758   1.439       .  S
C754        H759   1.084       .  S
N755        H775   1.045       .  S
N755        H776   1.046       .  S
C757        C760   1.401       .  A
C757        C764   1.408       .  A
N758        H773   1.046       .  S
N758        H774   1.043       .  S
C760        C761   1.406       .  A
C760        H765   1.084       .  S
C761        C762   1.413       .  A
C761        N766   1.437       .  S
C762        C763   1.405       .  A
C763        C764   1.403       .  A
C763        H767   1.084       .  S
C764        N768   1.439       .  S
N766        H769   1.046       .  S
N766        H770   1.045       .  S
N768        H771   1.046       .  S
N768        H772   1.043       .  S
C777        C778   1.421       .  A
C777        C782   1.408       .  A
C778        C779   1.407       .  A
C778        N783   1.438       .  S
C779        C780   1.400       .  A
C779        H784   1.084       .  S
C780        C785   1.483       .  S
C780        C781   1.408       .  A
C781        C782   1.404       .  A
C781        N786   1.438       .  S
C782        H787   1.083       .  S
N783        H803   1.045       .  S
N783        H804   1.046       .  S
C785        C788   1.400       .  A
C785        C792   1.409       .  A
N786        H801   1.045       .  S
N786        H802   1.046       .  S
C788        C789   1.403       .  A
C788        H793   1.084       .  S
C789        C790   1.416       .  A
C789        N794   1.438       .  S
C790        C791   1.407       .  A
C791        C792   1.407       .  A
C791        H795   1.083       .  S
C792        N796   1.438       .  S
N794        H797   1.046       .  S
N794        H798   1.046       .  S
N796        H799   1.045       .  S
N796        H800   1.046       .  S
C805        C806   1.410       .  A
C805        C810   1.404       .  A
C806        C807   1.401       .  A
C806        N811   1.432       .  S
C807        C808   1.400       .  A
C807        H812   1.084       .  S
C808        C813   1.478       .  S
C808        C809   1.410       .  A
C809        C810   1.407       .  A
C809        N814   1.438       .  S
C810        H815   1.084       .  S
N811        H831   1.046       .  S
N811        H832   1.045       .  S
C813        C816   1.400       .  A
C813        C820   1.409       .  A
N814        H829   1.046       .  S
N814        H830   1.046       .  S
C816        C817   1.405       .  A
C816        H821   1.084       .  S
C817        C818   1.415       .  A
C817        N822   1.438       .  S
C818        C819   1.406       .  A
C819        C820   1.405       .  A
C819        H823   1.084       .  S
C820        N824   1.438       .  S
N822        H825   1.046       .  S
N822        H826   1.046       .  S
N824        H827   1.046       .  S
N824        H828   1.046       .  S
C833        C834   1.417       .  A
C833        C838   1.409       .  A
C834        C835   1.401       .  A
C834        N839   1.433       .  S
C835        C836   1.399       .  A
C835        H840   1.084       .  S
C836        C841   1.478       .  S
C836        C837   1.407       .  A
C837        C838   1.406       .  A
C837        N842   1.437       .  S
C838        H843   1.083       .  S
N839        H859   1.046       .  S
N839        H860   1.046       .  S
C841        C844   1.398       .  A
C841        C848   1.408       .  A
N842        H857   1.046       .  S
N842        H858   1.046       .  S
C844        C845   1.401       .  A
C844        H849   1.084       .  S
C845        C846   1.416       .  A
C845        N850   1.432       .  S
C846        C847   1.408       .  A
C847        C848   1.406       .  A
C847        H851   1.083       .  S
C848        N852   1.438       .  S
N850        H853   1.045       .  S
N850        H854   1.046       .  S
N852        H855   1.045       .  S
N852        H856   1.046       .  S
C861        C862   1.420       .  A
C861        C866   1.410       .  A
C862        C863   1.406       .  A
C862        N867   1.438       .  S
C863        C864   1.400       .  A
C863        H868   1.084       .  S
C864        C869   1.480       .  S
C864        C865   1.407       .  A
C865        C866   1.404       .  A
C865        N870   1.438       .  S
C866        H871   1.083       .  S
N867        H887   1.046       .  S
N867        H888   1.046       .  S
C869        C872   1.401       .  A
C869        C876   1.409       .  A
N870        H885   1.045       .  S
N870        H886   1.046       .  S
C872        C873   1.402       .  A
C872        H877   1.084       .  S
C873        C874   1.414       .  A
C873        N878   1.432       .  S
C874        C875   1.406       .  A
C875        C876   1.405       .  A
C875        H879   1.083       .  S
C876        N880   1.438       .  S
N878        H881   1.045       .  S
N878        H882   1.046       .  S
N880        H883   1.046       .  S
N880        H884   1.046       .  S
C889        C890   1.417       .  A
C889        C894   1.407       .  A
C890        C891   1.408       .  A
C890        N895   1.438       .  S
C891        C892   1.402       .  A
C891        H896   1.084       .  S
C892        C897   1.479       .  S
C892        C893   1.406       .  A
C893        C894   1.402       .  A
C893        N898   1.438       .  S
C894        H899   1.083       .  S
N895        H915   1.046       .  S
N895        H916   1.046       .  S
C897        C900   1.399       .  A
C897        C904   1.408       .  A
N898        H913   1.045       .  S
N898        H914   1.046       .  S
C900        C901   1.401       .  A
C900        H905   1.084       .  S
C901        C902   1.415       .  A
C901        N906   1.432       .  S
C902        C903   1.408       .  A
C903        C904   1.408       .  A
C903        H907   1.083       .  S
C904        N908   1.438       .  S
N906        H909   1.045       .  S
N906        H910   1.046       .  S
N908        H911   1.046       .  S
N908        H912   1.046       .  S
C917        C918   1.415       .  A
C917        C922   1.405       .  A
C918        C919   1.406       .  A
C918        N923   1.438       .  S
C919        C920   1.401       .  A
C919        H924   1.084       .  S
C920        C925   1.483       .  S
C920        C921   1.410       .  A
C921        C922   1.404       .  A
C921        N926   1.438       .  S
C922        H927   1.084       .  S
N923        H943   1.046       .  S
N923        H944   1.045       .  S
C925        C928   1.401       .  A
C925        C932   1.410       .  A
N926        H941   1.046       .  S
N926        H942   1.046       .  S
C928        C929   1.405       .  A
C928        H933   1.084       .  S
C929        C930   1.414       .  A
C929        N934   1.437       .  S
C930        C931   1.406       .  A
C931        C932   1.406       .  A
C931        H935   1.083       .  S
C932        N936   1.438       .  S
N934        H937   1.045       .  S
N934        H938   1.046       .  S
N936        H939   1.046       .  S
N936        H940   1.046       .  S
C945        C946   1.417       .  A
C945        C950   1.409       .  A
C946        C947   1.407       .  A
C946        N951   1.438       .  S
C947        C948   1.400       .  A
C947        H952   1.084       .  S
C948        C953   1.479       .  S
C948        C949   1.406       .  A
C949        C950   1.406       .  A
C949        N954   1.438       .  S
C950        H955   1.083       .  S
N951        H971   1.046       .  S
N951        H972   1.046       .  S
C953        C956   1.400       .  A
C953        C960   1.405       .  A
N954        H969   1.046       .  S
N954        H970   1.045       .  S
C956        C957   1.410       .  A
C956        H961   1.084       .  S
C957        C958   1.420       .  A
C957        N962   1.436       .  S
C958        C959   1.409       .  A
C959        C960   1.402       .  A
C959        H963   1.083       .  S
C960        N964   1.438       .  S
N962        H965   1.046       .  S
N962        H966   1.045       .  S
N964        H967   1.045       .  S
N964        H968   1.046       .  S
C973        C974   1.415       .  A
C973        C978   1.408       .  A
C974        C975   1.403       .  A
C974        N979   1.436       .  S
C975        C976   1.399       .  A
C975        H980   1.084       .  S
C976        C981   1.476       .  S
C976        C977   1.406       .  A
C977        C978   1.405       .  A
C977        N982   1.438       .  S
C978        H983   1.083       .  S
N979        H999   1.046       .  S
N979       H1000   1.046       .  S
C981        C984   1.399       .  A
C981        C988   1.405       .  A
N982        H997   1.046       .  S
N982        H998   1.046       .  S
C984        C985   1.404       .  A
C984        H989   1.084       .  S
C985        C986   1.418       .  A
C985        N990   1.438       .  S
C986        C987   1.408       .  A
C987        C988   1.403       .  A
C987        H991   1.083       .  S
C988        N992   1.438       .  S
N990        H993   1.046       .  S
N990        H994   1.046       .  S
N992        H995   1.046       .  S
N992        H996   1.046       .  S
C1001      C1002   1.417       .  A
C1001      C1006   1.408       .  A
C1002      C1003   1.404       .  A
C1002      N1007   1.438       .  S
C1003      C1004   1.403       .  A
C1003      H1008   1.083       .  S
C1004      C1009   1.489       .  S
C1004      C1005   1.411       .  A
C1005      C1006   1.406       .  A
C1005      N1010   1.438       .  S
C1006      H1011   1.083       .  S
N1007      H1027   1.045       .  S
N1007      H1028   1.046       .  S
C1009      C1012   1.403       .  A
C1009      C1016   1.410       .  A
N1010      H1025   1.045       .  S
N1010      H1026   1.046       .  S
C1012      C1013   1.406       .  A
C1012      H1017   1.083       .  S
C1013      C1014   1.417       .  A
C1013      N1018   1.437       .  S
C1014      C1015   1.407       .  A
C1015      C1016   1.404       .  A
C1015      H1019   1.083       .  S
C1016      N1020   1.438       .  S
N1018      H1021   1.046       .  S
N1018      H1022   1.045       .  S
N1020      H1023   1.046       .  S
N1020      H1024   1.045       .  S
C1029      C1030   1.420       .  A
C1029      C1034   1.409       .  A
C1030      C1031   1.405       .  A
C1030      N1035   1.438       .  S
C1031      C1032   1.399       .  A
C1031      H1036   1.084       .  S
C1032      C1037   1.479       .  S
C1032      C1033   1.406       .  A
C1033      C1034   1.405       .  A
C1033      N1038   1.438       .  S
C1034      H1039   1.083       .  S
N1035      H1055   1.045       .  S
N1035      H1056   1.046       .  S
C1037      C1040   1.399       .  A
C1037      C1044   1.406       .  A
N1038      H1053   1.046       .  S
N1038      H1054   1.046       .  S
C1040      C1041   1.407       .  A
C1040      H1045   1.084       .  S
C1041      C1042   1.421       .  A
C1041      N1046   1.438       .  S
C1042      C1043   1.409       .  A
C1043      C1044   1.404       .  A
C1043      H1047   1.083       .  S
C1044      N1048   1.438       .  S
N1046      H1049   1.046       .  S
N1046      H1050   1.046       .  S
N1048      H1051   1.046       .  S
N1048      H1052   1.046       .  S
C1057      C1058   1.416       .  A
C1057      C1062   1.406       .  A
C1058      C1059   1.406       .  A
C1058      N1063   1.437       .  S
C1059      C1060   1.399       .  A
C1059      H1064   1.084       .  S
C1060      C1065   1.476       .  S
C1060      C1061   1.407       .  A
C1061      C1062   1.405       .  A
C1061      N1066   1.438       .  S
C1062      H1067   1.083       .  S
N1063      H1083   1.046       .  S
N1063      H1084   1.046       .  S
C1065      C1068   1.399       .  A
C1065      C1072   1.409       .  A
N1066      H1081   1.046       .  S
N1066      H1082   1.045       .  S
C1068      C1069   1.404       .  A
C1068      H1073   1.084       .  S
C1069      C1070   1.413       .  A
C1069      N1074   1.438       .  S
C1070      C1071   1.403       .  A
C1071      C1072   1.406       .  A
C1071      H1075   1.084       .  S
C1072      N1076   1.438       .  S
N1074      H1077   1.046       .  S
N1074      H1078   1.046       .  S
N1076      H1079   1.046       .  S
N1076      H1080   1.045       .  S
C1085      C1086   1.419       .  A
C1085      C1090   1.409       .  A
C1086      C1087   1.403       .  A
C1086      N1091   1.437       .  S
C1087      C1088   1.400       .  A
C1087      H1092   1.084       .  S
C1088      C1093   1.484       .  S
C1088      C1089   1.409       .  A
C1089      C1090   1.403       .  A
C1089      N1094   1.438       .  S
C1090      H1095   1.083       .  S
N1091      H1111   1.045       .  S
N1091      H1112   1.046       .  S
C1093      C1096   1.403       .  A
C1093      C1100   1.413       .  A
N1094      H1109   1.046       .  S
N1094      H1110   1.045       .  S
C1096      C1097   1.401       .  A
C1096      H1101   1.084       .  S
C1097      C1098   1.409       .  A
C1097      N1102   1.438       .  S
C1098      C1099   1.401       .  A
C1099      C1100   1.405       .  A
C1099      H1103   1.084       .  S
C1100      N1104   1.438       .  S
N1102      H1105   1.046       .  S
N1102      H1106   1.046       .  S
N1104      H1107   1.046       .  S
N1104      H1108   1.045       .  S
C1113      C1114   1.415       .  A
C1113      C1118   1.406       .  A
C1114      C1115   1.404       .  A
C1114      N1119   1.438       .  S
C1115      C1116   1.400       .  A
C1115      H1120   1.084       .  S
C1116      C1121   1.472       .  S
C1116      C1117   1.406       .  A
C1117      C1118   1.402       .  A
C1117      N1122   1.438       .  S
C1118      H1123   1.084       .  S
N1119      H1139   1.046       .  S
N1119      H1140   1.046       .  S
C1121      C1124   1.400       .  A
C1121      C1128   1.405       .  A
N1122      H1137   1.046       .  S
N1122      H1138   1.046       .  S
C1124      C1125   1.405       .  A
C1124      H1129   1.084       .  S
C1125      C1126   1.414       .  A
C1125      N1130   1.437       .  S
C1126      C1127   1.406       .  A
C1127      C1128   1.401       .  A
C1127      H1131   1.083       .  S
C1128      N1132   1.438       .  S
N1130      H1133   1.045       .  S
N1130      H1134   1.046       .  S
N1132      H1135   1.045       .  S
N1132      H1136   1.046       .  S
C1141      C1142   1.413       .  A
C1141      C1146   1.404       .  A
C1142      C1143   1.403       .  A
C1142      N1147   1.438       .  S
C1143      C1144   1.401       .  A
C1143      H1148   1.084       .  S
C1144      C1149   1.476       .  S
C1144      C1145   1.408       .  A
C1145      C1146   1.402       .  A
C1145      N1150   1.438       .  S
C1146      H1151   1.084       .  S
N1147      H1167   1.045       .  S
N1147      H1168   1.046       .  S
C1149      C1152   1.400       .  A
C1149      C1156   1.407       .  A
N1150      H1165   1.046       .  S
N1150      H1166   1.046       .  S
C1152      C1153   1.403       .  A
C1152      H1157   1.084       .  S
C1153      C1154   1.417       .  A
C1153      N1158   1.438       .  S
C1154      C1155   1.408       .  A
C1155      C1156   1.402       .  A
C1155      H1159   1.083       .  S
C1156      N1160   1.438       .  S
N1158      H1161   1.046       .  S
N1158      H1162   1.046       .  S
N1160      H1163   1.046       .  S
N1160      H1164   1.046       .  S
C1169      C1170   1.419       .  A
C1169      C1174   1.407       .  A
C1170      C1171   1.407       .  A
C1170      N1175   1.438       .  S
C1171      C1172   1.401       .  A
C1171      H1176   1.084       .  S
C1172      C1177   1.482       .  S
C1172      C1173   1.408       .  A
C1173      C1174   1.403       .  A
C1173      N1178   1.438       .  S
C1174      H1179   1.083       .  S
N1175      H1195   1.045       .  S
N1175      H1196   1.046       .  S
C1177      C1180   1.400       .  A
C1177      C1184   1.410       .  A
N1178      H1193   1.045       .  S
N1178      H1194   1.046       .  S
C1180      C1181   1.401       .  A
C1180      H1185   1.084       .  S
C1181      C1182   1.416       .  A
C1181      N1186   1.438       .  S
C1182      C1183   1.405       .  A
C1183      C1184   1.407       .  A
C1183      H1187   1.084       .  S
C1184      N1188   1.437       .  S
N1186      H1189   1.046       .  S
N1186      H1190   1.045       .  S
N1188      H1191   1.046       .  S
N1188      H1192   1.046       .  S
C1197      C1198   1.417   1_655  A
C1197      C1202   1.405       .  A
C1198      C1199   1.406       .  A
C1198      N1203   1.438   1_455  S
C1199      C1200   1.399       .  A
C1199      H1204   1.084       .  S
C1200      C1205   1.479       .  S
C1200      C1201   1.409       .  A
C1201      C1202   1.406   1_455  A
C1201      N1206   1.438       .  S
C1202      H1207   1.084       .  S
N1203      H1223   1.045       .  S
N1203      H1224   1.046   1_655  S
C1205      C1208   1.401       .  A
C1205      C1212   1.409       .  A
N1206      H1221   1.046   1_455  S
N1206      H1222   1.045       .  S
C1208      C1209   1.408       .  A
C1208      H1213   1.084       .  S
C1209      C1210   1.414       .  A
C1209      N1214   1.438       .  S
C1210      C1211   1.404       .  A
C1211      C1212   1.406       .  A
C1211      H1215   1.084       .  S
C1212      N1216   1.438       .  S
N1214      H1217   1.046       .  S
N1214      H1218   1.046       .  S
N1216      H1219   1.046       .  S
N1216      H1220   1.044       .  S
C1225      C1226   1.417       .  A
C1225      C1230   1.407       .  A
C1226      C1227   1.405       .  A
C1226      N1231   1.438       .  S
C1227      C1228   1.400       .  A
C1227      H1232   1.084       .  S
C1228      C1233   1.481       .  S
C1228      C1229   1.408       .  A
C1229      C1230   1.407       .  A
C1229      N1234   1.438       .  S
C1230      H1235   1.084       .  S
N1231      H1251   1.045       .  S
N1231      H1252   1.046       .  S
C1233      C1236   1.399       .  A
C1233      C1240   1.407       .  A
N1234      H1249   1.046       .  S
N1234      H1250   1.046       .  S
C1236      C1237   1.407       .  A
C1236      H1241   1.084       .  S
C1237      C1238   1.420       .  A
C1237      N1242   1.438       .  S
C1238      C1239   1.408       .  A
C1239      C1240   1.405       .  A
C1239      H1243   1.083       .  S
C1240      N1244   1.438       .  S
N1242      H1245   1.046       .  S
N1242      H1246   1.045       .  S
N1244      H1247   1.046       .  S
N1244      H1248   1.046       .  S
C1253      C1254   1.413   1_655  A
C1253      C1258   1.404       .  A
C1254      C1255   1.406       .  A
C1254      N1259   1.437   1_455  S
C1255      C1256   1.400       .  A
C1255      H1260   1.084       .  S
C1256      C1261   1.472       .  S
C1256      C1257   1.407       .  A
C1257      C1258   1.401   1_455  A
C1257      N1262   1.439       .  S
C1258      H1263   1.083       .  S
N1259      H1279   1.045       .  S
N1259      H1280   1.046   1_655  S
C1261      C1264   1.398       .  A
C1261      C1268   1.407       .  A
N1262      H1277   1.046   1_455  S
N1262      H1278   1.045       .  S
C1264      C1265   1.404       .  A
C1264      H1269   1.084       .  S
C1265      C1266   1.417       .  A
C1265      N1270   1.438       .  S
C1266      C1267   1.406       .  A
C1267      C1268   1.403       .  A
C1267      H1271   1.084       .  S
C1268      N1272   1.438       .  S
N1270      H1273   1.046       .  S
N1270      H1274   1.045       .  S
N1272      H1275   1.046       .  S
N1272      H1276   1.045       .  S
C1281      C1282   1.421       .  A
C1281      C1286   1.409       .  A
C1282      C1283   1.405       .  A
C1282      N1287   1.438       .  S
C1283      C1284   1.397       .  A
C1283      H1288   1.084       .  S
C1284      C1289   1.475       .  S
C1284      C1285   1.405       .  A
C1285      C1286   1.404       .  A
C1285      N1290   1.438       .  S
C1286      H1291   1.083       .  S
N1287      H1307   1.046       .  S
N1287      H1308   1.046       .  S
C1289      C1292   1.398       .  A
C1289      C1296   1.405       .  A
N1290      H1305   1.045       .  S
N1290      H1306   1.046       .  S
C1292      C1293   1.404       .  A
C1292      H1297   1.084       .  S
C1293      C1294   1.418       .  A
C1293      N1298   1.438       .  S
C1294      C1295   1.409       .  A
C1295      C1296   1.404       .  A
C1295      H1299   1.083       .  S
C1296      N1300   1.438       .  S
N1298      H1301   1.046       .  S
N1298      H1302   1.045       .  S
N1300      H1303   1.046       .  S
N1300      H1304   1.046       .  S
C1309      C1310   1.412       .  A
C1309      C1314   1.404       .  A
C1310      C1311   1.405       .  A
C1310      N1315   1.438       .  S
C1311      C1312   1.404       .  A
C1311      H1316   1.084       .  S
C1312      C1317   1.488       .  S
C1312      C1313   1.412       .  A
C1313      C1314   1.405       .  A
C1313      N1318   1.438       .  S
C1314      H1319   1.084       .  S
N1315      H1335   1.046       .  S
N1315      H1336   1.046       .  S
C1317      C1320   1.404       .  A
C1317      C1324   1.411       .  A
N1318      H1333   1.046       .  S
N1318      H1334   1.046       .  S
C1320      C1321   1.407       .  A
C1320      H1325   1.084       .  S
C1321      C1322   1.416       .  A
C1321      N1326   1.438       .  S
C1322      C1323   1.405       .  A
C1323      C1324   1.402       .  A
C1323      H1327   1.083       .  S
C1324      N1328   1.438       .  S
N1326      H1329   1.046       .  S
N1326      H1330   1.045       .  S
N1328      H1331   1.046       .  S
N1328      H1332   1.046       .  S
C1337      C1338   1.416       .  A
C1337      C1342   1.408       .  A
C1338      C1339   1.404       .  A
C1338      N1343   1.438       .  S
C1339      C1340   1.398       .  A
C1339      H1344   1.084       .  S
C1340      C1345   1.471       .  S
C1340      C1341   1.405       .  A
C1341      C1342   1.402       .  A
C1341      N1346   1.438       .  S
C1342      H1347   1.083       .  S
N1343      H1363   1.046       .  S
N1343      H1364   1.046       .  S
C1345      C1348   1.398       .  A
C1345      C1352   1.407       .  A
N1346      H1361   1.045       .  S
N1346      H1362   1.046       .  S
C1348      C1349   1.402       .  A
C1348      H1353   1.084       .  S
C1349      C1350   1.413       .  A
C1349      N1354   1.438       .  S
C1350      C1351   1.404       .  A
C1351      C1352   1.404       .  A
C1351      H1355   1.084       .  S
C1352      N1356   1.438       .  S
N1354      H1357   1.046       .  S
N1354      H1358   1.046       .  S
N1356      H1359   1.046       .  S
N1356      H1360   1.045       .  S
C1365      C1366   1.414       .  A
C1365      C1370   1.406       .  A
C1366      C1367   1.405       .  A
C1366      N1371   1.438       .  S
C1367      C1368   1.402       .  A
C1367      H1372   1.084       .  S
C1368      C1373   1.486       .  S
C1368      C1369   1.411       .  A
C1369      C1370   1.408       .  A
C1369      N1374   1.438       .  S
C1370      H1375   1.084       .  S
N1371      H1391   1.046       .  S
N1371      H1392   1.046       .  S
C1373      C1376   1.402       .  A
C1373      C1380   1.412       .  A
N1374      H1389   1.046       .  S
N1374      H1390   1.046       .  S
C1376      C1377   1.402       .  A
C1376      H1381   1.084       .  S
C1377      C1378   1.413       .  A
C1377      N1382   1.433       .  S
C1378      C1379   1.404       .  A
C1379      C1380   1.407       .  A
C1379      H1383   1.084       .  S
C1380      N1384   1.437       .  S
N1382      H1385   1.045       .  S
N1382      H1386   1.046       .  S
N1384      H1387   1.046       .  S
N1384      H1388   1.046       .  S
C1393      C1394   1.420       .  A
C1393      C1398   1.407       .  A
C1394      C1395   1.408       .  A
C1394      N1399   1.438       .  S
C1395      C1396   1.401       .  A
C1395      H1400   1.084       .  S
C1396      C1401   1.487       .  S
C1396      C1397   1.409       .  A
C1397      C1398   1.406       .  A
C1397      N1402   1.438       .  S
C1398      H1403   1.083       .  S
N1399      H1419   1.045       .  S
N1399      H1420   1.046       .  S
C1401      C1404   1.401       .  A
C1401      C1408   1.410       .  A
N1402      H1417   1.045       .  S
N1402      H1418   1.046       .  S
C1404      C1405   1.404       .  A
C1404      H1409   1.084       .  S
C1405      C1406   1.416       .  A
C1405      N1410   1.438       .  S
C1406      C1407   1.406       .  A
C1407      C1408   1.409       .  A
C1407      H1411   1.084       .  S
C1408      N1412   1.437       .  S
N1410      H1413   1.046       .  S
N1410      H1414   1.046       .  S
N1412      H1415   1.045       .  S
N1412      H1416   1.046       .  S
C1421      C1422   1.411       .  A
C1421      C1426   1.404       .  A
C1422      C1423   1.407       .  A
C1422      N1427   1.438       .  S
C1423      C1424   1.402       .  A
C1423      H1428   1.084       .  S
C1424      C1429   1.483       .  S
C1424      C1425   1.411       .  A
C1425      C1426   1.409       .  A
C1425      N1430   1.438       .  S
C1426      H1431   1.084       .  S
N1427      H1447   1.045       .  S
N1427      H1448   1.046       .  S
C1429      C1432   1.400       .  A
C1429      C1436   1.407       .  A
N1430      H1445   1.045       .  S
N1430      H1446   1.045       .  S
C1432      C1433   1.410       .  A
C1432      H1437   1.084       .  S
C1433      C1434   1.421       .  A
C1433      N1438   1.438       .  S
C1434      C1435   1.410       .  A
C1435      C1436   1.407       .  A
C1435      H1439   1.083       .  S
C1436      N1440   1.438       .  S
N1438      H1441   1.046       .  S
N1438      H1442   1.046       .  S
N1440      H1443   1.045       .  S
N1440      H1444   1.045       .  S
C1449      C1450   1.420       .  A
C1449      C1454   1.408       .  A
C1450      C1451   1.406       .  A
C1450      N1455   1.438       .  S
C1451      C1452   1.401       .  A
C1451      H1456   1.084       .  S
C1452      C1457   1.482       .  S
C1452      C1453   1.408       .  A
C1453      C1454   1.403       .  A
C1453      N1458   1.438       .  S
C1454      H1459   1.083       .  S
N1455      H1475   1.046       .  S
N1455      H1476   1.046       .  S
C1457      C1460   1.401       .  A
C1457      C1464   1.409       .  A
N1458      H1473   1.046       .  S
N1458      H1474   1.046       .  S
C1460      C1461   1.403       .  A
C1460      H1465   1.084       .  S
C1461      C1462   1.416       .  A
C1461      N1466   1.438       .  S
C1462      C1463   1.406       .  A
C1463      C1464   1.406       .  A
C1463      H1467   1.083       .  S
C1464      N1468   1.438       .  S
N1466      H1469   1.046       .  S
N1466      H1470   1.046       .  S
N1468      H1471   1.045       .  S
N1468      H1472   1.046       .  S
C1477      C1478   1.415       .  A
C1477      C1482   1.407       .  A
C1478      C1479   1.403       .  A
C1478      N1483   1.436       .  S
C1479      C1480   1.398       .  A
C1479      H1484   1.084       .  S
C1480      C1485   1.473       .  S
C1480      C1481   1.406       .  A
C1481      C1482   1.405       .  A
C1481      N1486   1.438       .  S
C1482      H1487   1.084       .  S
N1483      H1503   1.046       .  S
N1483      H1504   1.046       .  S
C1485      C1488   1.400       .  A
C1485      C1492   1.407       .  A
N1486      H1501   1.046       .  S
N1486      H1502   1.045       .  S
C1488      C1489   1.404       .  A
C1488      H1493   1.084       .  S
C1489      C1490   1.412       .  A
C1489      N1494   1.438       .  S
C1490      C1491   1.402       .  A
C1491      C1492   1.403       .  A
C1491      H1495   1.084       .  S
C1492      N1496   1.437       .  S
N1494      H1497   1.046       .  S
N1494      H1498   1.046       .  S
N1496      H1499   1.046       .  S
N1496      H1500   1.045       .  S
C1505      C1506   1.412       .  A
C1505      C1510   1.404       .  A
C1506      C1507   1.401       .  A
C1506      N1511   1.438       .  S
C1507      C1508   1.398       .  A
C1507      H1512   1.084       .  S
C1508      C1513   1.470   1_556  S
C1508      C1509   1.407       .  A
C1509      C1510   1.404       .  A
C1509      N1514   1.438       .  S
C1510      H1515   1.084       .  S
N1511      H1531   1.045       .  S
N1511      H1532   1.046       .  S
C1513      C1516   1.400       .  A
C1513      C1520   1.406       .  A
N1514      H1529   1.046       .  S
N1514      H1530   1.045       .  S
C1516      C1517   1.405       .  A
C1516      H1521   1.084       .  S
C1517      C1518   1.412       .  A
C1517      N1522   1.437       .  S
C1518      C1519   1.406       .  A
C1519      C1520   1.401       .  A
C1519      H1523   1.083       .  S
C1520      N1524   1.438       .  S
N1522      H1525   1.046       .  S
N1522      H1526   1.046       .  S
N1524      H1527   1.046       .  S
N1524      H1528   1.045       .  S
C1533      C1534   1.418       .  A
C1533      C1538   1.406       .  A
C1534      C1535   1.405       .  A
C1534      N1539   1.438       .  S
C1535      C1536   1.402       .  A
C1535      H1540   1.084       .  S
C1536      C1541   1.484       .  S
C1536      C1537   1.410       .  A
C1537      C1538   1.403       .  A
C1537      N1542   1.438       .  S
C1538      H1543   1.083       .  S
N1539      H1559   1.045       .  S
N1539      H1560   1.046       .  S
C1541      C1544   1.403       .  A
C1541      C1548   1.412       .  A
N1542      H1557   1.046       .  S
N1542      H1558   1.046       .  S
C1544      C1545   1.405       .  A
C1544      H1549   1.084       .  S
C1545      C1546   1.411       .  A
C1545      N1550   1.438       .  S
C1546      C1547   1.403       .  A
C1547      C1548   1.402       .  A
C1547      H1551   1.084       .  S
C1548      N1552   1.438       .  S
N1550      H1553   1.046       .  S
N1550      H1554   1.046       .  S
N1552      H1555   1.046       .  S
N1552      H1556   1.046       .  S
C1561      C1562   1.416       .  A
C1561      C1566   1.407       .  A
C1562      C1563   1.403   1_655  A
C1562      N1567   1.438       .  S
C1563      C1564   1.399       .  A
C1563      H1568   1.084       .  S
C1564      C1569   1.475       .  S
C1564      C1565   1.407       .  A
C1565      C1566   1.402   1_455  A
C1565      N1570   1.438       .  S
C1566      H1571   1.083       .  S
N1567      H1587   1.045       .  S
N1567      H1588   1.046       .  S
C1569      C1572   1.400       .  A
C1569      C1576   1.407       .  A
N1570      H1585   1.046       .  S
N1570      H1586   1.046       .  S
C1572      C1573   1.404       .  A
C1572      H1577   1.084       .  S
C1573      C1574   1.416       .  A
C1573      N1578   1.438       .  S
C1574      C1575   1.406       .  A
C1575      C1576   1.402       .  A
C1575      H1579   1.083       .  S
C1576      N1580   1.438       .  S
N1578      H1581   1.046       .  S
N1578      H1582   1.046       .  S
N1580      H1583   1.046       .  S
N1580      H1584   1.046       .  S
C1589      C1590   1.411       .  A
C1589      C1594   1.402       .  A
C1590      C1591   1.403       .  A
C1590      N1595   1.438       .  S
C1591      C1592   1.400       .  A
C1591      H1596   1.084       .  S
C1592      C1597   1.473   1_554  S
C1592      C1593   1.408       .  A
C1593      C1594   1.404       .  A
C1593      N1598   1.438       .  S
C1594      H1599   1.084       .  S
N1595      H1615   1.046       .  S
N1595      H1616   1.046       .  S
C1597      C1600   1.400       .  A
C1597      C1604   1.406       .  A
N1598      H1613   1.046       .  S
N1598      H1614   1.045       .  S
C1600      C1601   1.406       .  A
C1600      H1605   1.084       .  S
C1601      C1602   1.416       .  A
C1601      N1606   1.438       .  S
C1602      C1603   1.405       .  A
C1603      C1604   1.402       .  A
C1603      H1607   1.083       .  S
C1604      N1608   1.438       .  S
N1606      H1609   1.045       .  S
N1606      H1610   1.046       .  S
N1608      H1611   1.045       .  S
N1608      H1612   1.046       .  S
C1617      C1618   1.418       .  A
C1617      C1622   1.406       .  A
C1618      C1619   1.404       .  A
C1618      N1623   1.438       .  S
C1619      C1620   1.398       .  A
C1619      H1624   1.084       .  S
C1620      C1625   1.477       .  S
C1620      C1621   1.408       .  A
C1621      C1622   1.407       .  A
C1621      N1626   1.438       .  S
C1622      H1627   1.083       .  S
N1623      H1643   1.045       .  S
N1623      H1644   1.046       .  S
C1625      C1628   1.401       .  A
C1625      C1632   1.409       .  A
N1626      H1641   1.045       .  S
N1626      H1642   1.044       .  S
C1628      C1629   1.408       .  A
C1628      H1633   1.084       .  S
C1629      C1630   1.414       .  A
C1629      N1634   1.438       .  S
C1630      C1631   1.403       .  A
C1631      C1632   1.403       .  A
C1631      H1635   1.084       .  S
C1632      N1636   1.439       .  S
N1634      H1637   1.046       .  S
N1634      H1638   1.046       .  S
N1636      H1639   1.046       .  S
N1636      H1640   1.044       .  S
C1645      C1646   1.416       .  A
C1645      C1650   1.408   1_655  A
C1646      C1647   1.408   1_655  A
C1646      N1651   1.438       .  S
C1647      C1648   1.403       .  A
C1647      H1652   1.084       .  S
C1648      C1653   1.483       .  S
C1648      C1649   1.407       .  A
C1649      C1650   1.403       .  A
C1649      N1654   1.438       .  S
C1650      H1655   1.083       .  S
N1651      H1671   1.045       .  S
N1651      H1672   1.046       .  S
C1653      C1656   1.401       .  A
C1653      C1660   1.407       .  A
N1654      H1669   1.046       .  S
N1654      H1670   1.046       .  S
C1656      C1657   1.408       .  A
C1656      H1661   1.084       .  S
C1657      C1658   1.420       .  A
C1657      N1662   1.438       .  S
C1658      C1659   1.408       .  A
C1659      C1660   1.404       .  A
C1659      H1663   1.083       .  S
C1660      N1664   1.438       .  S
N1662      H1665   1.046       .  S
N1662      H1666   1.045       .  S
N1664      H1667   1.045       .  S
N1664      H1668   1.046       .  S
C1673      C1674   1.414   1_565  A
C1673      C1678   1.407       .  A
C1674      C1675   1.407       .  A
C1674      N1679   1.437       .  S
C1675      C1676   1.401   1_545  A
C1675      H1680   1.084       .  S
C1676      C1681   1.474       .  S
C1676      C1677   1.406       .  A
C1677      C1678   1.402       .  A
C1677      N1682   1.438       .  S
C1678      H1683   1.084       .  S
N1679      H1699   1.046       .  S
N1679      H1700   1.046       .  S
C1681      C1684   1.400   1_565  A
C1681      C1688   1.408       .  A
N1682      H1697   1.045       .  S
N1682      H1698   1.045       .  S
C1684      C1685   1.402   1_545  A
C1684      H1689   1.084       .  S
C1685      C1686   1.410   1_655  A
C1685      N1690   1.438   1_665  S
C1686      C1687   1.403   1_455  A
C1687      C1688   1.406       .  A
C1687      H1691   1.084   1_655  S
C1688      N1692   1.438       .  S
N1690      H1693   1.046   1_455  S
N1690      H1694   1.046   1_545  S
N1692      H1695   1.046       .  S
N1692      H1696   1.045       .  S
C1701      C1702   1.416       .  A
C1701      C1706   1.409       .  A
C1702      C1703   1.408       .  A
C1702      N1707   1.437       .  S
C1703      C1704   1.401       .  A
C1703      H1708   1.084       .  S
C1704      C1709   1.475       .  S
C1704      C1705   1.404       .  A
C1705      C1706   1.402       .  A
C1705      N1710   1.438       .  S
C1706      H1711   1.083       .  S
N1707      H1727   1.046       .  S
N1707      H1728   1.046       .  S
C1709      C1712   1.399       .  A
C1709      C1716   1.405       .  A
N1710      H1725   1.046       .  S
N1710      H1726   1.045       .  S
C1712      C1713   1.403       .  A
C1712      H1717   1.084       .  S
C1713      C1714   1.416       .  A
C1713      N1718   1.438       .  S
C1714      C1715   1.409       .  A
C1715      C1716   1.405       .  A
C1715      H1719   1.083       .  S
C1716      N1720   1.438       .  S
N1718      H1721   1.046       .  S
N1718      H1722   1.046       .  S
N1720      H1723   1.046       .  S
N1720      H1724   1.045       .  S
C1729      C1730   1.412       .  A
C1729      C1734   1.404       .  A
C1730      C1731   1.409       .  A
C1730      N1735   1.437       .  S
C1731      C1732   1.404       .  A
C1731      H1736   1.084       .  S
C1732      C1737   1.485       .  S
C1732      C1733   1.409       .  A
C1733      C1734   1.403       .  A
C1733      N1738   1.438       .  S
C1734      H1739   1.084       .  S
N1735      H1755   1.046       .  S
N1735      H1756   1.046       .  S
C1737      C1740   1.401       .  A
C1737      C1744   1.407       .  A
N1738      H1753   1.046       .  S
N1738      H1754   1.046       .  S
C1740      C1741   1.406       .  A
C1740      H1745   1.084       .  S
C1741      C1742   1.421       .  A
C1741      N1746   1.438       .  S
C1742      C1743   1.410       .  A
C1743      C1744   1.407       .  A
C1743      H1747   1.083       .  S
C1744      N1748   1.438       .  S
N1746      H1749   1.046       .  S
N1746      H1750   1.046       .  S
N1748      H1751   1.046       .  S
N1748      H1752   1.045       .  S
C1757      C1758   1.416   1_565  A
C1757      C1762   1.406       .  A
C1758      C1759   1.403       .  A
C1758      N1763   1.438       .  S
C1759      C1760   1.400   1_545  A
C1759      H1764   1.084       .  S
C1760      C1765   1.479       .  S
C1760      C1761   1.409       .  A
C1761      C1762   1.403       .  A
C1761      N1766   1.438       .  S
C1762      H1767   1.083       .  S
N1763      H1783   1.046       .  S
N1763      H1784   1.046       .  S
C1765      C1768   1.401       .  A
C1765      C1772   1.410   1_565  A
N1766      H1781   1.046       .  S
N1766      H1782   1.046       .  S
C1768      C1769   1.403       .  A
C1768      H1773   1.084       .  S
C1769      C1770   1.412       .  A
C1769      N1774   1.438       .  S
C1770      C1771   1.403   1_565  A
C1771      C1772   1.404       .  A
C1771      H1775   1.084       .  S
C1772      N1776   1.438       .  S
N1774      H1777   1.046       .  S
N1774      H1778   1.046   1_655  S
N1776      H1779   1.046       .  S
N1776      H1780   1.046       .  S
C1785      C1786   1.414       .  A
C1785      C1790   1.405       .  A
C1786      C1787   1.406       .  A
C1786      N1791   1.438       .  S
C1787      C1788   1.400       .  A
C1787      H1792   1.084       .  S
C1788      C1793   1.474       .  S
C1788      C1789   1.406       .  A
C1789      C1790   1.403       .  A
C1789      N1794   1.438       .  S
C1790      H1795   1.084       .  S
N1791      H1811   1.046       .  S
N1791      H1812   1.046       .  S
C1793      C1796   1.402       .  A
C1793      C1800   1.407       .  A
N1794      H1809   1.045       .  S
N1794      H1810   1.045       .  S
C1796      C1797   1.405       .  A
C1796      H1801   1.084       .  S
C1797      C1798   1.411       .  A
C1797      N1802   1.438       .  S
C1798      C1799   1.403       .  A
C1799      C1800   1.403       .  A
C1799      H1803   1.084       .  S
C1800      N1804   1.438       .  S
N1802      H1805   1.046       .  S
N1802      H1806   1.046       .  S
N1804      H1807   1.046       .  S
N1804      H1808   1.045       .  S
C1813      C1814   1.412       .  A
C1813      C1818   1.405       .  A
C1814      C1815   1.404       .  A
C1814      N1819   1.438       .  S
C1815      C1816   1.401       .  A
C1815      H1820   1.084       .  S
C1816      C1821   1.472       .  S
C1816      C1817   1.407       .  A
C1817      C1818   1.403       .  A
C1817      N1822   1.438       .  S
C1818      H1823   1.084       .  S
N1819      H1839   1.046       .  S
N1819      H1840   1.046       .  S
C1821      C1824   1.399       .  A
C1821      C1828   1.410       .  A
N1822      H1837   1.046       .  S
N1822      H1838   1.044       .  S
C1824      C1825   1.402       .  A
C1824      H1829   1.084       .  S
C1825      C1826   1.410       .  A
C1825      N1830   1.438       .  S
C1826      C1827   1.403       .  A
C1827      C1828   1.405       .  A
C1827      H1831   1.084       .  S
C1828      N1832   1.439       .  S
N1830      H1833   1.045       .  S
N1830      H1834   1.046       .  S
N1832      H1835   1.046       .  S
N1832      H1836   1.044       .  S
C1841      C1842   1.413       .  A
C1841      C1846   1.405   1_554  A
C1842      C1843   1.404       .  A
C1842      N1847   1.437       .  S
C1843      C1844   1.402       .  A
C1843      H1848   1.084       .  S
C1844      C1849   1.484       .  S
C1844      C1845   1.409   1_554  A
C1845      C1846   1.406       .  A
C1845      N1850   1.437       .  S
C1846      H1851   1.084       .  S
N1847      H1867   1.045       .  S
N1847      H1868   1.046       .  S
C1849      C1852   1.402   1_564  A
C1849      C1856   1.407   1_565  A
N1850      H1865   1.046       .  S
N1850      H1866   1.046       .  S
C1852      C1853   1.407       .  A
C1852      H1857   1.084   1_545  S
C1853      C1854   1.418       .  A
C1853      N1858   1.438       .  S
C1854      C1855   1.409   1_556  A
C1855      C1856   1.404       .  A
C1855      H1859   1.083       .  S
C1856      N1860   1.438       .  S
N1858      H1861   1.046       .  S
N1858      H1862   1.046       .  S
N1860      H1863   1.046       .  S
N1860      H1864   1.045   1_545  S
C1869      C1870   1.414       .  A
C1869      C1874   1.405       .  A
C1870      C1871   1.406       .  A
C1870      N1875   1.438       .  S
C1871      C1872   1.402       .  A
C1871      H1876   1.084       .  S
C1872      C1877   1.481       .  S
C1872      C1873   1.408       .  A
C1873      C1874   1.405       .  A
C1873      N1878   1.438       .  S
C1874      H1879   1.084       .  S
N1875      H1895   1.046       .  S
N1875      H1896   1.046       .  S
C1877      C1880   1.402       .  A
C1877      C1884   1.408       .  A
N1878      H1893   1.045       .  S
N1878      H1894   1.046       .  S
C1880      C1881   1.407       .  A
C1880      H1885   1.084       .  S
C1881      C1882   1.414       .  A
C1881      N1886   1.438       .  S
C1882      C1883   1.406       .  A
C1883      C1884   1.405       .  A
C1883      H1887   1.084       .  S
C1884      N1888   1.438       .  S
N1886      H1889   1.046       .  S
N1886      H1890   1.046       .  S
N1888      H1891   1.046       .  S
N1888      H1892   1.046       .  S
C1897      C1898   1.410       .  A
C1897      C1902   1.402       .  A
C1898      C1899   1.405       .  A
C1898      N1903   1.438       .  S
C1899      C1900   1.400       .  A
C1899      H1904   1.084       .  S
C1900      C1905   1.474       .  S
C1900      C1901   1.408       .  A
C1901      C1902   1.404       .  A
C1901      N1906   1.438       .  S
C1902      H1907   1.084       .  S
N1903      H1923   1.046       .  S
N1903      H1924   1.046       .  S
C1905      C1908   1.401       .  A
C1905      C1912   1.407       .  A
N1906      H1921   1.045       .  S
N1906      H1922   1.045       .  S
C1908      C1909   1.406       .  A
C1908      H1913   1.084       .  S
C1909      C1910   1.413       .  A
C1909      N1914   1.438       .  S
C1910      C1911   1.403       .  A
C1911      C1912   1.402       .  A
C1911      H1915   1.084       .  S
C1912      N1916   1.438       .  S
N1914      H1917   1.046       .  S
N1914      H1918   1.046       .  S
N1916      H1919   1.046       .  S
N1916      H1920   1.045       .  S
C1925      C1926   1.416       .  A
C1925      C1930   1.409   1_554  A
C1926      C1927   1.406       .  A
C1926      N1931   1.438       .  S
C1927      C1928   1.403   1_554  A
C1927      H1932   1.084       .  S
C1928      C1933   1.488   1_545  S
C1928      C1929   1.409       .  A
C1929      C1930   1.406       .  A
C1929      N1934   1.438       .  S
C1930      H1935   1.083       .  S
N1931      H1951   1.045       .  S
N1931      H1952   1.046       .  S
C1933      C1936   1.403       .  A
C1933      C1940   1.411   1_556  A
N1934      H1949   1.046       .  S
N1934      H1950   1.046   1_545  S
C1936      C1937   1.403       .  A
C1936      H1941   1.084       .  S
C1937      C1938   1.413       .  A
C1937      N1942   1.433       .  S
C1938      C1939   1.405   1_556  A
C1939      C1940   1.406       .  A
C1939      H1943   1.084       .  S
C1940      N1944   1.437       .  S
N1942      H1945   1.046       .  S
N1942      H1946   1.045       .  S
N1944      H1947   1.046       .  S
N1944      H1948   1.045       .  S
C1953      C1954   1.418       .  A
C1953      C1958   1.410       .  A
C1954      C1955   1.406       .  A
C1954      N1959   1.438       .  S
C1955      C1956   1.403       .  A
C1955      H1960   1.084       .  S
C1956      C1961   1.488       .  S
C1956      C1957   1.408       .  A
C1957      C1958   1.406       .  A
C1957      N1962   1.438       .  S
C1958      H1963   1.083       .  S
N1959      H1979   1.046       .  S
N1959      H1980   1.046       .  S
C1961      C1964   1.405       .  A
C1961      C1968   1.411       .  A
N1962      H1977   1.046       .  S
N1962      H1978   1.046       .  S
C1964      C1965   1.406       .  A
C1964      H1969   1.084       .  S
C1965      C1966   1.411       .  A
C1965      N1970   1.432       .  S
C1966      C1967   1.405       .  A
C1967      C1968   1.403       .  A
C1967      H1971   1.083       .  S
C1968      N1972   1.438       .  S
N1970      H1973   1.046       .  S
N1970      H1974   1.046       .  S
N1972      H1975   1.046       .  S
N1972      H1976   1.045       .  S
C1981      C1982   1.414       .  A
C1981      C1986   1.406       .  A
C1982      C1983   1.405       .  A
C1982      N1987   1.432       .  S
C1983      C1984   1.403       .  A
C1983      H1988   1.084       .  S
C1984      C1989   1.486       .  S
C1984      C1985   1.410       .  A
C1985      C1986   1.405       .  A
C1985      N1990   1.438       .  S
C1986      H1991   1.083       .  S
N1987      H2007   1.046       .  S
N1987      H2008   1.045       .  S
C1989      C1992   1.401       .  A
C1989      C1996   1.409       .  A
N1990      H2005   1.046       .  S
N1990      H2006   1.045       .  S
C1992      C1993   1.406       .  A
C1992      H1997   1.084       .  S
C1993      C1994   1.418       .  A
C1993      N1998   1.438       .  S
C1994      C1995   1.409       .  A
C1995      C1996   1.407       .  A
C1995      H1999   1.083       .  S
C1996      N2000   1.438       .  S
N1998      H2001   1.046       .  S
N1998      H2002   1.046       .  S
N2000      H2003   1.046       .  S
N2000      H2004   1.046       .  S
