geometry optimzed in LAMMPS
_audit_creation_date              2020-11-30 
_audit_creation_method            'lammps2cif' 
_symmetry_space_group_name_H-M    'P1' 
_symmetry_Int_Tables_number       1 
_symmetry_cell_setting            triclinic 
loop_ 
_symmetry_equiv_pos_as_xyz 
  x,y,z 
_cell_length_a                    41.96933896 
_cell_length_b                    42.6403535285301 
_cell_length_c                    41.96608083530698 
_cell_angle_alpha                 90.56754749573267 
_cell_angle_beta                  90.26009678563591 
_cell_angle_gamma                 120.84537504713897 
loop_ 
_atom_site_label 
_atom_site_type_symbol 
_atom_site_fract_x 
_atom_site_fract_y 
_atom_site_fract_z 
_atom_site_charge 
O1          O  0.46970511  0.30395654  0.37311848    -0.58100
C2          C  0.50846976  0.40910587  0.37092919     0.74500
O3          O  0.39902609  0.35204109  0.33927880    -0.59300
C4          C  0.43987936  0.27315891  0.37253145     0.74500
C5          C  0.41139730  0.33836347  0.43718816     0.76900
Cd6        Cd  0.43959667  0.33997148  0.37404101     1.37500
O7          O  0.50787103  0.37916162  0.37005504    -0.58100
O8          O  0.43995594  0.33629913  0.43241555    -0.56900
C9          C  0.40454218  0.33890055  0.31414516     0.76800
O10         O  0.39471437  0.33987618  0.41255146    -0.59300
O11         O  0.47738605  0.40692141  0.37301491    -0.57800
O12         O  0.40977237  0.27337737  0.37247703    -0.57800
O13         O  0.42434884  0.32463150  0.31723686    -0.56900
O14         O  0.75035250  0.59006295  0.37460254    -0.58100
C15         C  0.64476192  0.54881856  0.37305739     0.74500
O16         O  0.70417908  0.65861252  0.41351363    -0.59300
C17         C  0.78159602  0.61938185  0.37511011     0.74500
C18         C  0.71302101  0.64931817  0.31514933     0.76900
Cd19       Cd  0.71305284  0.61846471  0.37595097     1.37500
O20         O  0.67590528  0.55140993  0.37672957    -0.58100
O21         O  0.72047183  0.62434296  0.31844202    -0.56900
C22         C  0.71229859  0.64738578  0.43831717     0.76800
O23         O  0.70735948  0.66200353  0.34051937    -0.59300
O24         O  0.64508929  0.57853876  0.37111852    -0.57800
O25         O  0.78132982  0.64901442  0.37586820    -0.57800
O26         O  0.72215826  0.62423964  0.43400370    -0.56900
O27         O  0.41157679  0.46392439  0.12125910    -0.58100
C28         C  0.30737315  0.39723153  0.12362865     0.74500
O29         O  0.39397025  0.36229065  0.08891377    -0.59300
C30         C  0.44286760  0.46634802  0.12244033     0.74500
C31         C  0.37383332  0.36872186  0.18793688     0.76900
Cd32       Cd  0.37501945  0.39662553  0.12490025     1.37500
O33         O  0.33890560  0.42618306  0.12289744    -0.58100
O34         O  0.37565936  0.39883139  0.18342569    -0.56900
C35         C  0.37830445  0.36523773  0.06422015     0.76800
O36         O  0.37140684  0.35038572  0.16313848    -0.59300
O37         O  0.30693427  0.36727318  0.12447210    -0.57800
O38         O  0.44252871  0.43665646  0.12479632    -0.57800
O39         O  0.35944811  0.38041095  0.06817428    -0.56900
O40         O  0.62218923  0.71234192  0.12832285    -0.58100
C41         C  0.58069456  0.60479886  0.12297028     0.74500
O42         O  0.69387731  0.66976842  0.09017086    -0.59300
C43         C  0.65258357  0.74256204  0.12740866     0.74500
C44         C  0.67927450  0.67490287  0.18868788     0.76900
Cd45       Cd  0.64960556  0.67406008  0.12634261     1.37500
O46         O  0.58149609  0.63484128  0.12397773    -0.58100
O47         O  0.65264563  0.68031060  0.18456840    -0.56900
C48         C  0.68078424  0.67545688  0.06506678     0.76800
O49         O  0.69306829  0.66983224  0.16375555    -0.59300
O50         O  0.61178787  0.60676025  0.12356835    -0.57800
O51         O  0.68195111  0.74108160  0.12590158    -0.57800
O52         O  0.65482436  0.68194068  0.06875679    -0.56900
O53         O  0.17633258  0.43560661  0.12927884    -0.58100
C54         C  0.11176046  0.47981167  0.13124902     0.74500
O55         O  0.05911633  0.36957577  0.09202958    -0.59300
C56         C  0.17443820  0.40503180  0.12705653     0.74500
C57         C  0.07870608  0.37835235  0.18974771     0.76900
Cd58       Cd  0.10974728  0.41087018  0.12913895     1.37500
O59         O  0.14136082  0.47879129  0.13182816    -0.58100
O60         O  0.11218630  0.40351554  0.18692935    -0.56900
C61         C  0.07815002  0.38166773  0.06698458     0.76800
O62         O  0.05958486  0.36722384  0.16427089    -0.59300
O63         O  0.08183405  0.44928191  0.12999989    -0.57800
O64         O  0.14224306  0.37683741  0.12597758    -0.57800
O65         O  0.11174628  0.40646989  0.07083537    -0.56900
O66         O  0.13939350  0.64558889  0.12876224    -0.58100
C67         C  0.17409862  0.75070406  0.12830326     0.74500
O68         O  0.06023634  0.67649855  0.08814573    -0.59300
C69         C  0.11008471  0.61453691  0.12955052     0.74500
C70         C  0.07427017  0.67932031  0.18775136     0.76900
Cd71       Cd  0.10746491  0.68093035  0.12717605     1.37500
O72         O  0.17421109  0.72112247  0.12996960    -0.58100
O73         O  0.10867293  0.69201866  0.18464129    -0.56900
C74         C  0.07917547  0.67937567  0.06372744     0.76800
O75         O  0.05494090  0.66910204  0.16233471    -0.59300
O76         O  0.14263623  0.74808137  0.12673224    -0.57800
O77         O  0.07986235  0.61433618  0.12923262    -0.57800
O78         O  0.11101169  0.68406688  0.06891993    -0.56900
O79         O  0.91941705  0.30433225  0.37686295    -0.58100
C80         C  0.98427138  0.41079389  0.37703430     0.74500
O81         O  0.03598699  0.35378932  0.41517151    -0.59300
C82         C  0.91969259  0.27478590  0.37606643     0.74500
C83         C  0.01665337  0.34473291  0.31513033     0.76900
Cd84       Cd  0.98623534  0.34441676  0.37692063     1.37500
O85         O  0.95482434  0.37981726  0.37680756    -0.58100
O86         O  0.98423788  0.33905135  0.31870185    -0.56900
C87         C  0.01632687  0.34738847  0.43981163     0.76800
O88         O  0.03522705  0.34923701  0.34044232    -0.59300
O89         O  0.01445751  0.41091871  0.37685086    -0.57800
O90         O  0.95121610  0.27748174  0.37556795    -0.57800
O91         O  0.98288475  0.33821354  0.43505774    -0.56900
O92         O  0.91646565  0.58558571  0.37689795    -0.58100
C93         C  0.98254748  0.54509429  0.37711335     0.74500
O94         O  0.03037698  0.65880393  0.33870165    -0.59300
C95         C  0.91692909  0.61546290  0.37500492     0.74500
C96         C  0.01780326  0.64584730  0.43642207     0.76900
Cd97       Cd  0.98383918  0.61322171  0.37542720     1.37500
O98         O  0.95289163  0.54592832  0.37843551    -0.58100
O99         O  0.98305474  0.62621128  0.43262282    -0.56900
C100        C  0.01280508  0.64259841  0.31339433     0.76800
O101        O  0.03711332  0.65183916  0.41165572    -0.59300
O102        O  0.01232306  0.57556178  0.37503089    -0.57800
O103        O  0.94852924  0.64431991  0.37332922    -0.57800
O104        O  0.98196407  0.61345590  0.31692307    -0.56900
O105        O  0.75204152  0.13407583  0.38002194    -0.58100
C106        C  0.64544487  0.06731778  0.37739315     0.74500
O107        O  0.72481877  0.06972329  0.32183245    -0.59300
C108        C  0.78303030  0.13580314  0.37877534     0.74500
C109        C  0.71445223  0.03938499  0.44166096     0.76900
Cd110      Cd  0.71418958  0.06769756  0.37943758     1.37500
O111        O  0.67668735  0.09652708  0.37786093    -0.58100
O112        O  0.71724094  0.07005019  0.43793812    -0.56900
C113        C  0.71376995  0.03625422  0.31782463     0.76800
O114        O  0.71294804  0.02204289  0.41646799    -0.59300
O115        O  0.64581594  0.03786557  0.37775227    -0.57800
O116        O  0.78225803  0.10567436  0.37836163    -0.57800
O117        O  0.70408800  0.01703966  0.34270497    -0.56900
O118        O  0.47183362  0.13897071  0.36937176    -0.58100
C119        C  0.51004451  0.07059059  0.37038267     0.74500
O120        O  0.40080889  0.02309812  0.40356070    -0.59300
C121        C  0.44162515  0.13892410  0.36906023     0.74500
C122        C  0.41394212  0.04567457  0.30465388     0.76900
Cd123      Cd  0.44298186  0.07279953  0.36762556     1.37500
O124        O  0.51048114  0.10047265  0.36987416    -0.58100
O125        O  0.44405241  0.07539432  0.30961456    -0.56900
C126        C  0.41286705  0.04246700  0.42878635     0.76800
O127        O  0.39641459  0.02822054  0.32910210    -0.59300
O128        O  0.47850284  0.04171615  0.36899761    -0.57800
O129        O  0.41192162  0.10801195  0.36786710    -0.57800
O130        O  0.43726706  0.07571311  0.42528934    -0.56900
O131        O  0.34234383  0.88855884  0.11951618    -0.58100
C132        C  0.44986062  0.95075581  0.11956708     0.74500
O133        O  0.39077067  0.00295930  0.08006971    -0.59300
C134        C  0.31199449  0.88814546  0.12087958     0.74500
C135        C  0.38286666  0.98678561  0.17749382     0.76900
Cd136      Cd  0.38247433  0.95410632  0.11703291     1.37500
O137        O  0.41857058  0.92268385  0.11370540    -0.58100
O138        O  0.39456292  0.00590039  0.15263416    -0.56900
C139        C  0.38252609  0.98333031  0.05509013     0.76800
O140        O  0.37004352  0.95291617  0.17392776    -0.59300
O141        O  0.44993691  0.98012569  0.12409831    -0.57800
O142        O  0.31397868  0.91882880  0.11992336    -0.57800
O143        O  0.37276234  0.95028988  0.05909741    -0.56900
O144        O  0.62510863  0.87975796  0.12979302    -0.58100
C145        C  0.58558738  0.94678032  0.12488612     0.74500
O146        O  0.69995520  0.99326210  0.16574309    -0.59300
C147        C  0.65491378  0.87912674  0.12820198     0.74500
C148        C  0.68615715  0.97826240  0.06721931     0.76900
Cd149      Cd  0.65429116  0.94613178  0.12779386     1.37500
O150        O  0.58622675  0.91776891  0.12014732    -0.58100
O151        O  0.66395922  0.94440247  0.07039753    -0.56900
C152        C  0.68414497  0.97543823  0.19055383     0.76800
O153        O  0.69576415  0.99744511  0.09257156    -0.59300
O154        O  0.61653217  0.97521600  0.13086746    -0.57800
O155        O  0.68479613  0.90978769  0.12646274    -0.57800
O156        O  0.65600083  0.94399407  0.18610273    -0.56900
C157        C  0.51846858  0.98122771  0.12847829    -0.13700
C158        C  0.48443655  0.94948314  0.12106414     0.08500
C159        C  0.48386015  0.91670261  0.11508573    -0.13700
C160        C  0.51670618  0.91575847  0.11634058    -0.13700
C161        C  0.55075003  0.94757518  0.12361672     0.08500
C162        C  0.55125431  0.98028316  0.12973750    -0.13700
H163        H  0.51978871  0.00687011  0.13329093     0.12500
H164        H  0.45804537  0.89179631  0.10935483     0.12500
H165        H  0.51545760  0.89015895  0.11156138     0.12500
H166        H  0.57704627  0.00523708  0.13549878     0.12500
C167        C  0.41738862  0.05481009  0.24580365    -0.13700
C168        C  0.40108937  0.03174845  0.27194530     0.08500
C169        C  0.37501223  0.99467513  0.26639953    -0.13700
C170        C  0.36755683  0.98035977  0.23536004    -0.13700
C171        C  0.38566091  0.00298747  0.20935442     0.08500
C172        C  0.40952499  0.04058837  0.21472735    -0.13700
H173        H  0.43729795  0.08361467  0.24943578     0.12500
H174        H  0.36193020  0.97636817  0.28611735     0.12500
H175        H  0.34875424  0.95129149  0.23181998     0.12500
H176        H  0.42371170  0.05864602  0.19510507     0.12500
C177        C  0.40990660  0.05032637  0.48764394    -0.13700
C178        C  0.40056840  0.02709753  0.46083201     0.08500
C179        C  0.38224398  0.98920982  0.46523405    -0.13700
C180        C  0.37503792  0.97493439  0.99594461    -0.13700
C181        C  0.38571186  0.99822147  0.02282192     0.08500
C182        C  0.40236478  0.03601748  0.01837206    -0.13700
H183        H  0.42399310  0.07968428  0.48491047     0.12500
H184        H  0.37491169  0.97071874  0.44502669     0.12500
H185        H  0.36214529  0.94567033  0.99864459     0.12500
H186        H  0.41089498  0.05460762  0.03862009     0.12500
C187        C  0.69556602  0.98650694  0.47765144    -0.13700
C188        C  0.71166249  0.02429105  0.47374275     0.08500
C189        C  0.72238280  0.04715854  0.50089676    -0.13700
C190        C  0.71603554  0.03239367  0.03144447    -0.13700
C191        C  0.69827809  0.99441670  0.03534972     0.08500
C192        C  0.68872485  0.97170034  0.00816422    -0.13700
H193        H  0.68680804  0.96826900  0.45714179     0.12500
H194        H  0.73491537  0.07642919  0.49851983     0.12500
H195        H  0.72355518  0.05053332  0.05193312     0.12500
H196        H  0.67487713  0.94230299  0.01043700     0.12500
C197        C  0.72478425  0.04346845  0.25904850    -0.13700
C198        C  0.71084830  0.02052107  0.28557176     0.08500
C199        C  0.69129474  0.98251086  0.28058367    -0.13700
C200        C  0.68392940  0.96780828  0.24961676    -0.13700
C201        C  0.69647007  0.99080738  0.22307735     0.08500
C202        C  0.71786765  0.02874764  0.22810449    -0.13700
H203        H  0.74003420  0.07289090  0.26215573     0.12500
H204        H  0.68025818  0.96416407  0.30052801     0.12500
H205        H  0.66747948  0.93843222  0.24641035     0.12500
H206        H  0.72772930  0.04710454  0.20809769     0.12500
C207        C  0.61178800  0.10127304  0.37453559    -0.13700
C208        C  0.61061248  0.06783503  0.37630214     0.08500
C209        C  0.57604134  0.03518646  0.37667778    -0.13700
C210        C  0.54322924  0.03602416  0.37485014    -0.13700
C211        C  0.54450137  0.06950601  0.37262616     0.08500
C212        C  0.57905681  0.10210810  0.37271517    -0.13700
H213        H  0.63804964  0.12685797  0.37431441     0.12500
H214        H  0.57436430  0.00904288  0.37821273     0.12500
H215        H  0.51689414  0.01048105  0.37507725     0.12500
H216        H  0.58083635  0.12828590  0.37118250     0.12500
C217        C  0.85061200  0.23747092  0.37601284    -0.13700
C218        C  0.88489293  0.23912127  0.37600904     0.08500
C219        C  0.88551618  0.20652188  0.37647472    -0.13700
C220        C  0.85237877  0.17283271  0.37730806    -0.13700
C221        C  0.81811764  0.17122633  0.37769155     0.08500
C222        C  0.81754375  0.20385218  0.37686202    -0.13700
H223        H  0.84931094  0.26218337  0.37554318     0.12500
H224        H  0.91159797  0.20705975  0.37643191     0.12500
H225        H  0.85357951  0.14806823  0.37781354     0.12500
H226        H  0.79152761  0.20343244  0.37694917     0.12500
C227        C  0.94975156  0.44426469  0.37888403    -0.13700
C228        C  0.98356893  0.44499787  0.37752583     0.08500
C229        C  0.01690542  0.47879212  0.37664391    -0.13700
C230        C  0.01645907  0.51126162  0.37673162    -0.13700
C231        C  0.98268884  0.51060123  0.37776061     0.08500
C232        C  0.94930782  0.47682402  0.37903301    -0.13700
H233        H  0.92364899  0.41855345  0.37973248     0.12500
H234        H  0.04336861  0.48016175  0.37570182     0.12500
H235        H  0.04262780  0.53692398  0.37583583     0.12500
H236        H  0.92290391  0.47555925  0.37992544     0.12500
C237        C  0.08066937  0.68983947  0.24674960    -0.13700
C238        C  0.05769762  0.67477546  0.21963957     0.08500
C239        C  0.01928030  0.65196785  0.22369117    -0.13700
C240        C  0.00448772  0.64249048  0.25428913    -0.13700
C241        C  0.02774441  0.65611060  0.28135879     0.08500
C242        C  0.06580539  0.68078819  0.27733066    -0.13700
H243        H  0.11039253  0.70759684  0.24434265     0.12500
H244        H  0.00092575  0.63997357  0.20325469     0.12500
H245        H  0.97495679  0.62365320  0.25674884     0.07700
H246        H  0.08433354  0.69173303  0.29776473     0.12500
C247        C  0.02749803  0.66551756  0.02526361    -0.13700
C248        C  0.06467740  0.67587936  0.03083193     0.08500
C249        C  0.08721910  0.67992423  0.00464090    -0.13700
C250        C  0.07242902  0.67196800  0.47368827    -0.13700
C251        C  0.03471293  0.65951563  0.46833369     0.08500
C252        C  0.01261365  0.65722932  0.49431086    -0.13700
H253        H  0.00952446  0.66233974  0.04493284     0.12500
H254        H  0.11604263  0.68802632  0.00815380     0.12500
H255        H  0.09010566  0.67396701  0.45414602     0.12500
H256        H  0.98348229  0.64793097  0.49082877     0.12500
C257        C  0.24306839  0.78736379  0.12787374    -0.13700
C258        C  0.20906748  0.78623612  0.12762587     0.08500
C259        C  0.20897717  0.81907904  0.12574253    -0.13700
C260        C  0.24243440  0.85246836  0.12376728    -0.13700
C261        C  0.27639166  0.85340915  0.12353706     0.08500
C262        C  0.27633876  0.82056221  0.12582357    -0.13700
H263        H  0.24401027  0.76250423  0.12929872     0.12500
H264        H  0.18309098  0.81892604  0.12551546     0.12500
H265        H  0.24172501  0.87744050  0.12214495     0.12500
H266        H  0.30207446  0.82044041  0.12585847     0.12500
C267        C  0.08570731  0.37238051  0.24826754    -0.13700
C268        C  0.06259107  0.36418677  0.22132936     0.08500
C269        C  0.02397798  0.34542429  0.22533412    -0.13700
C270        C  0.00892932  0.33746528  0.25589146    -0.13700
C271        C  0.03216682  0.34763609  0.28297271     0.08500
C272        C  0.07061032  0.36392434  0.27882634    -0.13700
H273        H  0.11558806  0.38655949  0.24580969     0.12500
H274        H  0.00551670  0.33867905  0.20499759     0.12500
H275        H  0.97913860  0.32458984  0.25836299     0.12500
H276        H  0.08914373  0.37190982  0.29924144     0.12500
C277        C  0.08486434  0.37511309  0.00846289    -0.13700
C278        C  0.06189301  0.36866430  0.03484274     0.08500
C279        C  0.02346592  0.35213865  0.02991763    -0.13700
C280        C  0.00850807  0.34400464  0.49902786    -0.13700
C281        C  0.03163772  0.35180233  0.47249408     0.08500
C282        C  0.06984673  0.36653580  0.47757326    -0.13700
H283        H  0.11458755  0.38759602  0.01165988     0.12500
H284        H  0.00516802  0.34697509  0.04982853     0.12500
H285        H  0.97892922  0.33261415  0.49588668     0.12500
H286        H  0.08831057  0.37271757  0.45762483     0.12500
C287        C  0.14516662  0.54840091  0.13281035    -0.13700
C288        C  0.11176265  0.51451803  0.13164511     0.08500
C289        C  0.07800928  0.51392126  0.13026434    -0.13700
C290        C  0.07757302  0.54642686  0.12977513    -0.13700
C291        C  0.11089935  0.58030673  0.13062926     0.08500
C292        C  0.14473007  0.58102204  0.13227771    -0.13700
H293        H  0.17158369  0.54969024  0.13391761     0.12500
H294        H  0.05180721  0.48824556  0.12933720     0.12500
H295        H  0.05108549  0.54499962  0.12850666     0.12500
H296        H  0.17085002  0.60676856  0.13303954     0.12500
C297        C  0.62034541  0.77800621  0.13033694    -0.13700
C298        C  0.65350542  0.77762482  0.12799220     0.08500
C299        C  0.68730893  0.81093057  0.12602466    -0.13700
C300        C  0.68785767  0.84400528  0.12617227    -0.13700
C301        C  0.65463662  0.84433909  0.12832935     0.08500
C302        C  0.62089518  0.81101022  0.13050021    -0.13700
H303        H  0.59388299  0.75275765  0.13196045     0.12500
H304        H  0.71328971  0.81142025  0.12423127     0.12500
H305        H  0.71427603  0.86930424  0.12449940     0.12500
H306        H  0.59486106  0.81040338  0.13224295     0.12500
C307        C  0.23810668  0.36677643  0.12126145    -0.13700
C308        C  0.27311171  0.39876813  0.12387608     0.08500
C309        C  0.27533096  0.43262227  0.12726562    -0.13700
C310        C  0.24319724  0.43451660  0.12825958    -0.13700
C311        C  0.20817080  0.40260102  0.12579438     0.08500
C312        C  0.20584609  0.36868735  0.12215973    -0.13700
H313        H  0.23568254  0.34035103  0.11855184     0.12500
H314        H  0.30195339  0.45772157  0.12944502     0.12500
H315        H  0.24581216  0.46100632  0.13108875     0.12500
H316        H  0.17913153  0.34366118  0.12009274     0.12500
C317        C  0.47788283  0.53463889  0.11988234    -0.13700
C318        C  0.47798368  0.50179703  0.12136735     0.08500
C319        C  0.51206748  0.50304784  0.12230827    -0.13700
C320        C  0.54545205  0.53650593  0.12234831    -0.13700
C321        C  0.54540310  0.56939360  0.12153436     0.08500
C322        C  0.51131807  0.56815060  0.11999101    -0.13700
H323        H  0.45200546  0.53446254  0.11899758     0.12500
H324        H  0.51296381  0.47813644  0.12331431     0.12500
H325        H  0.57129784  0.53662133  0.12342960     0.12500
H326        H  0.51047515  0.59308761  0.11917643     0.12500
C327        C  0.85092968  0.65117867  0.37394113    -0.13700
C328        C  0.81634260  0.61864568  0.37490799     0.08500
C329        C  0.81508027  0.58509056  0.37577099    -0.13700
C330        C  0.84777774  0.58406582  0.37577215    -0.13700
C331        C  0.88238771  0.61658989  0.37483332     0.08500
C332        C  0.88367542  0.65014663  0.37384774    -0.13700
H333        H  0.85267819  0.67739573  0.37323648     0.12500
H334        H  0.78878809  0.55955640  0.37655151     0.12500
H335        H  0.84594346  0.55781479  0.37652060     0.12500
H336        H  0.91001532  0.67564197  0.37310309     0.12500
C337        C  0.72176742  0.65058042  0.25637866    -0.13700
C338        C  0.70938086  0.66124982  0.28311752     0.08500
C339        C  0.69007904  0.67974876  0.27853756    -0.13700
C340        C  0.68139936  0.68543224  0.24769003    -0.13700
C341        C  0.69237571  0.67321373  0.22098567     0.08500
C342        C  0.71357935  0.65672726  0.22561379    -0.13700
H343        H  0.73677746  0.63633016  0.25922899     0.12500
H344        H  0.68012066  0.68816423  0.29872402     0.12500
H345        H  0.66516711  0.69842565  0.24475066     0.12500
H346        H  0.72236719  0.64704332  0.20548940     0.12500
C347        C  0.72181345  0.64905321  0.49734795    -0.13700
C348        C  0.70887203  0.65917650  0.47069382     0.08500
C349        C  0.68977374  0.67785440  0.47545803    -0.13700
C350        C  0.68201644  0.68452111  0.00628640    -0.13700
C351        C  0.69358496  0.67302575  0.03292187     0.08500
C352        C  0.71443579  0.65611988  0.02820777    -0.13700
H353        H  0.73667464  0.63465565  0.49435527     0.12500
H354        H  0.67942416  0.68590152  0.45537320     0.12500
H355        H  0.66594921  0.69769595  0.00924463     0.12500
H356        H  0.72357747  0.64687958  0.04830094     0.12500
C357        C  0.40689673  0.20501111  0.36984711    -0.13700
C358        C  0.44026983  0.23879032  0.37191195     0.08500
C359        C  0.47406055  0.23947376  0.37329972    -0.13700
C360        C  0.47448545  0.20696595  0.37242572    -0.13700
C361        C  0.44111460  0.17319784  0.37013796     0.08500
C362        C  0.40732310  0.17249548  0.36895921    -0.13700
H363        H  0.38046267  0.20371120  0.36878930     0.12500
H364        H  0.50020428  0.26513697  0.37501951     0.12500
H365        H  0.50092354  0.20828352  0.37350018     0.12500
H366        H  0.38118324  0.14680688  0.36725678     0.12500
C367        C  0.37767217  0.36601813  0.27797403    -0.13700
C368        C  0.39063114  0.34183965  0.28250541     0.08500
C369        C  0.39408264  0.32358624  0.25585973    -0.13700
C370        C  0.38661322  0.33079376  0.22513053    -0.13700
C371        C  0.37602666  0.35676550  0.22044943     0.08500
C372        C  0.37074435  0.37363412  0.24721071    -0.13700
H373        H  0.37474623  0.38047586  0.29803449     0.12500
H374        H  0.40391777  0.30471561  0.25865046     0.12500
H375        H  0.39093029  0.31742859  0.20496243     0.12500
H376        H  0.36237025  0.39362423  0.24430174     0.12500
C377        C  0.41666158  0.33542433  0.49645045    -0.13700
C378        C  0.39936437  0.34046331  0.46983194     0.08500
C379        C  0.37262852  0.35040581  0.47476702    -0.13700
C380        C  0.36468658  0.35694352  0.00560668    -0.13700
C381        C  0.38309620  0.35342041  0.03217463     0.08500
C382        C  0.40853508  0.34173798  0.02733788    -0.13700
H383        H  0.43732203  0.32764591  0.49336867     0.12500
H384        H  0.35891534  0.35455444  0.45473806     0.12500
H385        H  0.34495641  0.36592819  0.00856034     0.12500
H386        H  0.42320192  0.33883931  0.04730923     0.12500
C387        C  0.57784365  0.44668174  0.37135663    -0.13700
C388        C  0.54343374  0.44472763  0.37000967     0.08500
C389        C  0.54263681  0.47722482  0.36861794    -0.13700
C390        C  0.57560727  0.51107321  0.36915631    -0.13700
C391        C  0.60998360  0.51306039  0.37127920     0.08500
C392        C  0.61083485  0.48056055  0.37205766    -0.13700
H393        H  0.57926405  0.42206154  0.37237666     0.12500
H394        H  0.51649293  0.47651267  0.36739627     0.12500
H395        H  0.57415276  0.53569232  0.36833793     0.12500
H396        H  0.63698024  0.48130744  0.37348970     0.12500
O397        O  0.46970506  0.30395647  0.87311866    -0.58100
C398        C  0.50846982  0.40910581  0.87092898     0.74500
O399        O  0.39902615  0.35204115  0.83927888    -0.59300
C400        C  0.43987931  0.27315885  0.87253159     0.74500
C401        C  0.41139753  0.33836361  0.93718823     0.76900
Cd402      Cd  0.43959674  0.33997150  0.87404106     1.37500
O403        O  0.50787104  0.37916154  0.87005467    -0.58100
O404        O  0.43995642  0.33629971  0.93241563    -0.56900
C405        C  0.40454219  0.33890060  0.81414522     0.76800
O406        O  0.39471437  0.33987593  0.91255153    -0.59300
O407        O  0.47738616  0.40692139  0.87301500    -0.57800
O408        O  0.40977233  0.27337732  0.87247698    -0.57800
O409        O  0.42434890  0.32463160  0.81723687    -0.56900
O410        O  0.75035247  0.59006291  0.87460294    -0.58100
C411        C  0.64476199  0.54881856  0.87305715     0.74500
O412        O  0.70417897  0.65861255  0.91351357    -0.59300
C413        C  0.78159597  0.61938184  0.87511043     0.74500
C414        C  0.71302112  0.64931823  0.81514930     0.76900
Cd415      Cd  0.71305286  0.61846474  0.87595102     1.37500
O416        O  0.67590535  0.55140996  0.87672948    -0.58100
O417        O  0.72047195  0.62434303  0.81844200    -0.56900
C418        C  0.71229845  0.64738586  0.93831715     0.76800
O419        O  0.70735960  0.66200359  0.84051936    -0.59300
O420        O  0.64508934  0.57853875  0.87111820    -0.57800
O421        O  0.78132976  0.64901440  0.87586835    -0.57800
O422        O  0.72215812  0.62423972  0.93400376    -0.56900
O423        O  0.41157678  0.46392440  0.62125928    -0.58100
C424        C  0.30737304  0.39723148  0.62362868     0.74500
O425        O  0.39397003  0.36229049  0.58891376    -0.59300
C426        C  0.44286759  0.46634801  0.62244030     0.74500
C427        C  0.37383328  0.36872168  0.68793685     0.76900
Cd428      Cd  0.37501935  0.39662550  0.62490023     1.37500
O429        O  0.33890552  0.42618302  0.62289782    -0.58100
O430        O  0.37565895  0.39883103  0.68342571    -0.56900
C431        C  0.37830423  0.36523758  0.56422015     0.76800
O432        O  0.37140717  0.35038576  0.66313840    -0.59300
O433        O  0.30693414  0.36727311  0.62447179    -0.57800
O434        O  0.44252866  0.43665641  0.62479602    -0.57800
O435        O  0.35944785  0.38041077  0.56817430    -0.56900
O436        O  0.62218931  0.71234193  0.62832277    -0.58100
C437        C  0.58069462  0.60479887  0.62297011     0.74500
O438        O  0.69387747  0.66976849  0.59017090    -0.59300
C439        C  0.65258365  0.74256205  0.62740851     0.74500
C440        C  0.67927458  0.67490287  0.68868783     0.76900
Cd441      Cd  0.64960565  0.67406011  0.62634260     1.37500
O442        O  0.58149617  0.63484129  0.62397769    -0.58100
O443        O  0.65264578  0.68031070  0.68456835    -0.56900
C444        C  0.68078445  0.67545696  0.56506680     0.76800
O445        O  0.69306828  0.66983209  0.66375550    -0.59300
O446        O  0.61178794  0.60676026  0.62356807    -0.57800
O447        O  0.68195121  0.74108164  0.62590149    -0.57800
O448        O  0.65482456  0.68194075  0.56875676    -0.56900
O449        O  0.17633242  0.43560652  0.62927898    -0.58100
C450        C  0.11176046  0.47981164  0.63124893     0.74500
O451        O  0.05911631  0.36957605  0.59202964    -0.59300
C452        C  0.17443805  0.40503173  0.62705648     0.74500
C453        C  0.07870592  0.37835230  0.68974765     0.76900
Cd454      Cd  0.10974728  0.41087020  0.62913891     1.37500
O455        O  0.14136083  0.47879130  0.63182829    -0.58100
O456        O  0.11218611  0.40351558  0.68692934    -0.56900
C457        C  0.07815000  0.38166779  0.56698461     0.76800
O458        O  0.05958479  0.36722378  0.66427080    -0.59300
O459        O  0.08183406  0.44928186  0.62999954    -0.57800
O460        O  0.14224293  0.37683732  0.62597726    -0.57800
O461        O  0.11174635  0.40646975  0.57083534    -0.56900
O462        O  0.13939327  0.64558873  0.62876259    -0.58100
C463        C  0.17409854  0.75070396  0.62830321     0.74500
O464        O  0.06023623  0.67649837  0.58814570    -0.59300
C465        C  0.11008446  0.61453674  0.62955061     0.74500
C466        C  0.07427003  0.67932035  0.68775136     0.76900
Cd467      Cd  0.10746485  0.68093027  0.62717602     1.37500
O468        O  0.17421101  0.72112237  0.62996950    -0.58100
O469        O  0.10867280  0.69201881  0.68464130    -0.56900
C470        C  0.07917539  0.67937554  0.56372741     0.76800
O471        O  0.05494075  0.66910185  0.66233470    -0.59300
O472        O  0.14263615  0.74808128  0.62673213    -0.57800
O473        O  0.07986211  0.61433602  0.62923250    -0.57800
O474        O  0.11101160  0.68406672  0.56891988    -0.56900
O475        O  0.91941706  0.30433222  0.87686308    -0.58100
C476        C  0.98427138  0.41079389  0.87703426     0.74500
O477        O  0.03598702  0.35378929  0.91517150    -0.59300
C478        C  0.91969252  0.27478584  0.87606644     0.74500
C479        C  0.01665323  0.34473283  0.81513025     0.76900
Cd480      Cd  0.98623532  0.34441667  0.87692067     1.37500
O481        O  0.95482437  0.37981723  0.87680768    -0.58100
O482        O  0.98423776  0.33905135  0.81870181    -0.56900
C483        C  0.01632693  0.34738840  0.93981164     0.76800
O484        O  0.03522688  0.34923680  0.84044223    -0.59300
O485        O  0.01445752  0.41091873  0.87685074    -0.57800
O486        O  0.95121601  0.27748160  0.87556784    -0.57800
O487        O  0.98288481  0.33821353  0.93505778    -0.56900
O488        O  0.91646555  0.58558569  0.87689811    -0.58100
C489        C  0.98254748  0.54509434  0.87711332     0.74500
O490        O  0.03037661  0.65880399  0.83870163    -0.59300
C491        C  0.91692898  0.61546288  0.87500506     0.74500
C492        C  0.01780325  0.64584724  0.93642204     0.76900
Cd493      Cd  0.98383905  0.61322173  0.87542725     1.37500
O494        O  0.95289164  0.54592838  0.87843540    -0.58100
O495        O  0.98305471  0.62621136  0.93262286    -0.56900
C496        C  0.01280482  0.64259835  0.81339431     0.76800
O497        O  0.03711324  0.65183893  0.91165567    -0.59300
O498        O  0.01232309  0.57556186  0.87503100    -0.57800
O499        O  0.94852911  0.64431991  0.87332936    -0.57800
O500        O  0.98196389  0.61345576  0.81692307    -0.56900
O501        O  0.75204138  0.13407563  0.88002179    -0.58100
C502        C  0.64544485  0.06731760  0.87739304     0.74500
O503        O  0.72481908  0.06972312  0.82183251    -0.59300
C504        C  0.78303021  0.13580299  0.87877530     0.74500
C505        C  0.71445228  0.03938493  0.94166097     0.76900
Cd506      Cd  0.71418953  0.06769736  0.87943755     1.37500
O507        O  0.67668734  0.09652689  0.87786083    -0.58100
O508        O  0.71724067  0.07005000  0.93793809    -0.56900
C509        C  0.71376982  0.03625396  0.81782467     0.76800
O510        O  0.71294839  0.02204293  0.91646804    -0.59300
O511        O  0.64581589  0.03786538  0.87775217    -0.57800
O512        O  0.78225795  0.10567422  0.87836173    -0.57800
O513        O  0.70408746  0.01703934  0.84270497    -0.56900
O514        O  0.47183359  0.13897071  0.86937169    -0.58100
C515        C  0.51004450  0.07059054  0.87038282     0.74500
O516        O  0.40080895  0.02309819  0.90356064    -0.59300
C517        C  0.44162512  0.13892410  0.86906029     0.74500
C518        C  0.41394194  0.04567444  0.80465393     0.76900
Cd519      Cd  0.44298182  0.07279954  0.86762554     1.37500
O520        O  0.51048116  0.10047259  0.86987405    -0.58100
O521        O  0.44405220  0.07539424  0.80961457    -0.56900
C522        C  0.41286698  0.04246706  0.92878630     0.76800
O523        O  0.39641451  0.02822036  0.82910217    -0.59300
O524        O  0.47850282  0.04171612  0.86899797    -0.57800
O525        O  0.41192156  0.10801195  0.86786725    -0.57800
O526        O  0.43726692  0.07571320  0.92528933    -0.56900
O527        O  0.34234390  0.88855881  0.61951631    -0.58100
C528        C  0.44986062  0.95075575  0.61956704     0.74500
O529        O  0.39077039  0.00295909  0.58006979    -0.59300
C530        C  0.31199452  0.88814541  0.62087959     0.74500
C531        C  0.38286664  0.98678542  0.67749393     0.76900
Cd532      Cd  0.38247435  0.95410629  0.61703297     1.37500
O533        O  0.41857057  0.92268381  0.61370531    -0.58100
O534        O  0.39456267  0.00590022  0.65263425    -0.56900
C535        C  0.38252597  0.98333016  0.55509019     0.76800
O536        O  0.37004375  0.95291603  0.67392786    -0.59300
O537        O  0.44993694  0.98012566  0.62409826    -0.57800
O538        O  0.31397871  0.91882873  0.61992326    -0.57800
O539        O  0.37276233  0.95028975  0.55909744    -0.56900
O540        O  0.62510863  0.87975782  0.62979266    -0.58100
C541        C  0.58558740  0.94678021  0.62488609     0.74500
O542        O  0.69995512  0.99326186  0.66574309    -0.59300
C543        C  0.65491383  0.87912665  0.62820175     0.74500
C544        C  0.68615701  0.97826234  0.56721922     0.76900
Cd545      Cd  0.65429113  0.94613163  0.62779377     1.37500
O546        O  0.58622674  0.91776876  0.62014743    -0.58100
O547        O  0.66395901  0.94440243  0.57039745    -0.56900
C548        C  0.68414476  0.97543802  0.69055381     0.76800
O549        O  0.69576416  0.99744505  0.59257148    -0.59300
O550        O  0.61653220  0.97521591  0.63086730    -0.57800
O551        O  0.68479616  0.90978763  0.62646263    -0.57800
O552        O  0.65600057  0.94399390  0.68610266    -0.56900
C553        C  0.51846861  0.98122761  0.62847842    -0.13700
C554        C  0.48443657  0.94948309  0.62106416     0.08500
C555        C  0.48386018  0.91670258  0.61508566    -0.13700
C556        C  0.51670621  0.91575842  0.61634046    -0.13700
C557        C  0.55075006  0.94757510  0.62361669     0.08500
C558        C  0.55125435  0.98028306  0.62973761    -0.13700
H559        H  0.51978877  0.00687005  0.63329112     0.12500
H560        H  0.45804542  0.89179635  0.60935468     0.12500
H561        H  0.51545761  0.89015893  0.61156120     0.12500
H562        H  0.57704630  0.00523693  0.63549898     0.12500
C563        C  0.41738812  0.05480998  0.74580372    -0.13700
C564        C  0.40108911  0.03174829  0.77194538     0.08500
C565        C  0.37501226  0.99467490  0.76639964    -0.13700
C566        C  0.36755699  0.98035948  0.73536018    -0.13700
C567        C  0.38566083  0.00298725  0.70935453     0.08500
C568        C  0.40952454  0.04058821  0.71472741    -0.13700
H569        H  0.43729719  0.08361461  0.74943581     0.12500
H570        H  0.36193040  0.97636788  0.78611747     0.12500
H571        H  0.34875474  0.95129116  0.73182016     0.12500
H572        H  0.42371099  0.05864591  0.69510511     0.12500
C573        C  0.40990663  0.05032643  0.98764385    -0.13700
C574        C  0.40056829  0.02709755  0.96083194     0.08500
C575        C  0.38224382  0.98920985  0.96523400    -0.13700
C576        C  0.37503803  0.97493433  0.49594465    -0.13700
C577        C  0.38571185  0.99822136  0.52282198     0.08500
C578        C  0.40236477  0.03601739  0.51837215    -0.13700
H579        H  0.42399323  0.07968434  0.98491038     0.12500
H580        H  0.37491147  0.97071873  0.94502665     0.12500
H581        H  0.36214541  0.94567027  0.49864464     0.12500
H582        H  0.41089492  0.05460748  0.53862020     0.12500
C583        C  0.69556629  0.98650693  0.97765152    -0.13700
C584        C  0.71166255  0.02429101  0.97374278     0.08500
C585        C  0.72238277  0.04715854  0.00089676    -0.13700
C586        C  0.71603542  0.03239361  0.53144446    -0.13700
C587        C  0.69827788  0.99441662  0.53534963     0.08500
C588        C  0.68872460  0.97170030  0.50816411    -0.13700
H589        H  0.68680848  0.96826898  0.95714192     0.12500
H590        H  0.73491515  0.07642914  0.99851977     0.12500
H591        H  0.72355503  0.05053315  0.55193315     0.12500
H592        H  0.67487681  0.94230293  0.51043683     0.12500
C593        C  0.72478441  0.04346813  0.75904856    -0.13700
C594        C  0.71084816  0.02052078  0.78557182     0.08500
C595        C  0.69129422  0.98251057  0.78058369    -0.13700
C596        C  0.68392884  0.96780801  0.74961677    -0.13700
C597        C  0.69646981  0.99080712  0.72307736     0.08500
C598        C  0.71786775  0.02874735  0.72810456    -0.13700
H599        H  0.74003464  0.07289062  0.76215579     0.12500
H600        H  0.68025739  0.96416377  0.80052801     0.12500
H601        H  0.66747866  0.93843196  0.74641032     0.12500
H602        H  0.72772966  0.04710431  0.70809774     0.12500
C603        C  0.61178800  0.10127293  0.87453553    -0.13700
C604        C  0.61061247  0.06783490  0.87630203     0.08500
C605        C  0.57604133  0.03518634  0.87667775    -0.13700
C606        C  0.54322923  0.03602407  0.87485025    -0.13700
C607        C  0.54450137  0.06950594  0.87262631     0.08500
C608        C  0.57905680  0.10210801  0.87271527    -0.13700
H609        H  0.63804961  0.12685784  0.87431428     0.12500
H610        H  0.57436429  0.00904280  0.87821269     0.12500
H611        H  0.51689417  0.01048097  0.87507744     0.12500
H612        H  0.58083634  0.12828582  0.87118268     0.12500
C613        C  0.85061189  0.23747084  0.87601278    -0.13700
C614        C  0.88489286  0.23912123  0.87600903     0.08500
C615        C  0.88551612  0.20652186  0.87647474    -0.13700
C616        C  0.85237875  0.17283267  0.87730812    -0.13700
C617        C  0.81811756  0.17122623  0.87769150     0.08500
C618        C  0.81754369  0.20385207  0.87686191    -0.13700
H619        H  0.84931080  0.26218329  0.87554307     0.12500
H620        H  0.91159801  0.20705981  0.87643191     0.12500
H621        H  0.85357953  0.14806823  0.87781372     0.12500
H622        H  0.79152746  0.20343229  0.87694900     0.12500
C623        C  0.94975149  0.44426467  0.87888372    -0.13700
C624        C  0.98356886  0.44499785  0.87752573     0.08500
C625        C  0.01690537  0.47879212  0.87664405    -0.13700
C626        C  0.01645900  0.51126161  0.87673175    -0.13700
C627        C  0.98268881  0.51060124  0.87776055     0.08500
C628        C  0.94930774  0.47682401  0.87903282    -0.13700
H629        H  0.92364889  0.41855339  0.87973195     0.12500
H630        H  0.04336854  0.48016176  0.87570216     0.12500
H631        H  0.04262779  0.53692400  0.87583614     0.12500
H632        H  0.92290385  0.47555923  0.87992519     0.12500
C633        C  0.08066912  0.68983966  0.74674959    -0.13700
C634        C  0.05769742  0.67477552  0.71963955     0.08500
C635        C  0.01928014  0.65196762  0.72369110    -0.13700
C636        C  0.00448753  0.64249019  0.75428907    -0.13700
C637        C  0.02774416  0.65611048  0.78135875     0.08500
C638        C  0.06580511  0.68078830  0.77733066    -0.13700
H639        H  0.11039224  0.70759715  0.74434268     0.12500
H640        H  0.00092567  0.63997319  0.70325462     0.12500
H641        H  0.97495663  0.62365275  0.75674873     0.07700
H642        H  0.08433318  0.69173326  0.79776472     0.12500
C643        C  0.02749801  0.66551755  0.52526367    -0.13700
C644        C  0.06467739  0.67587937  0.53083194     0.08500
C645        C  0.08721906  0.67992422  0.50464091    -0.13700
C646        C  0.07242908  0.67196803  0.97368823    -0.13700
C647        C  0.03471300  0.65951564  0.96833362     0.08500
C648        C  0.01261370  0.65722936  0.99431076    -0.13700
H649        H  0.00952448  0.66233970  0.54493294     0.12500
H650        H  0.11604263  0.68802630  0.50815379     0.12500
H651        H  0.09010578  0.67396710  0.95414598     0.12500
H652        H  0.98348237  0.64793104  0.99082862     0.12500
C653        C  0.24306831  0.78736368  0.62787393    -0.13700
C654        C  0.20906741  0.78623604  0.62762593     0.08500
C655        C  0.20897715  0.81907897  0.62574244    -0.13700
C656        C  0.24243442  0.85246829  0.62376718    -0.13700
C657        C  0.27639169  0.85340906  0.62353710     0.08500
C658        C  0.27633870  0.82056209  0.62582373    -0.13700
H659        H  0.24401015  0.76250413  0.62929896     0.12500
H660        H  0.18309096  0.81892598  0.62551519     0.12500
H661        H  0.24172506  0.87744041  0.62214467     0.12500
H662        H  0.30207441  0.82044022  0.62585868     0.12500
C663        C  0.08570712  0.37238024  0.74826743    -0.13700
C664        C  0.06259090  0.36418666  0.72132928     0.08500
C665        C  0.02397781  0.34542431  0.72533403    -0.13700
C666        C  0.00892916  0.33746536  0.75589137    -0.13700
C667        C  0.03216667  0.34763606  0.78297261     0.08500
C668        C  0.07061016  0.36392418  0.77882625    -0.13700
H669        H  0.11558790  0.38655908  0.74580957     0.12500
H670        H  0.00551655  0.33867918  0.70499750     0.12500
H671        H  0.97913847  0.32459000  0.75836290     0.12500
H672        H  0.08914353  0.37190954  0.79924132     0.12500
C673        C  0.08486425  0.37511299  0.50846295    -0.13700
C674        C  0.06189293  0.36866435  0.53484278     0.08500
C675        C  0.02346587  0.35213898  0.52991765    -0.13700
C676        C  0.00850811  0.34400426  0.99902786    -0.13700
C677        C  0.03163776  0.35180215  0.97249407     0.08500
C678        C  0.06984681  0.36653584  0.97757322    -0.13700
H679        H  0.11458743  0.38759576  0.51165995     0.12500
H680        H  0.00516799  0.34697556  0.54982850     0.12500
H681        H  0.97892918  0.33261357  0.99588671     0.12500
H682        H  0.08831066  0.37271774  0.95762478     0.12500
C683        C  0.14516653  0.54840086  0.63281048    -0.13700
C684        C  0.11176256  0.51451796  0.63164505     0.08500
C685        C  0.07800917  0.51392112  0.63026418    -0.13700
C686        C  0.07757285  0.54642669  0.62977499    -0.13700
C687        C  0.11089915  0.58030659  0.63062927     0.08500
C688        C  0.14472986  0.58102192  0.63227785    -0.13700
H689        H  0.17158356  0.54969024  0.63391791     0.12500
H690        H  0.05180712  0.48824538  0.62933694     0.12500
H691        H  0.05108531  0.54499942  0.62850644     0.12500
H692        H  0.17084984  0.60676851  0.63303986     0.12500
C693        C  0.62034545  0.77800618  0.63033659    -0.13700
C694        C  0.65350545  0.77762478  0.62799196     0.08500
C695        C  0.68730898  0.81093052  0.62602455    -0.13700
C696        C  0.68785774  0.84400523  0.62617217    -0.13700
C697        C  0.65463668  0.84433903  0.62832915     0.08500
C698        C  0.62089522  0.81101016  0.63049988    -0.13700
H699        H  0.59388296  0.75275757  0.63196003     0.12500
H700        H  0.71328976  0.81142016  0.62423129     0.12500
H701        H  0.71427612  0.86930419  0.62449938     0.12500
H702        H  0.59486108  0.81040331  0.63224250     0.12500
C703        C  0.23810658  0.36677643  0.62126113    -0.13700
C704        C  0.27311161  0.39876809  0.62387607     0.08500
C705        C  0.27533087  0.43262221  0.62726593    -0.13700
C706        C  0.24319714  0.43451654  0.62825983    -0.13700
C707        C  0.20817070  0.40260101  0.62579437     0.08500
C708        C  0.20584599  0.36868737  0.62215945    -0.13700
H709        H  0.23568238  0.34035105  0.61855134     0.12500
H710        H  0.30195328  0.45772142  0.62944566     0.12500
H711        H  0.24581210  0.46100627  0.63108918     0.12500
H712        H  0.17913143  0.34366127  0.62009228     0.12500
C713        C  0.47788284  0.53463890  0.61988249    -0.13700
C714        C  0.47798367  0.50179702  0.62136735     0.08500
C715        C  0.51206749  0.50304785  0.62230806    -0.13700
C716        C  0.54545206  0.53650593  0.62234800    -0.13700
C717        C  0.54540312  0.56939361  0.62153425     0.08500
C718        C  0.51131807  0.56815061  0.61999115    -0.13700
H719        H  0.45200544  0.53446260  0.61899791     0.12500
H720        H  0.51296381  0.47813642  0.62331399     0.12500
H721        H  0.57129786  0.53662133  0.62342904     0.12500
H722        H  0.51047516  0.59308760  0.61917676     0.12500
C723        C  0.85092964  0.65117865  0.87394123    -0.13700
C724        C  0.81634256  0.61864566  0.87490833     0.08500
C725        C  0.81508020  0.58509053  0.87577141    -0.13700
C726        C  0.84777766  0.58406579  0.87577252    -0.13700
C727        C  0.88238761  0.61658983  0.87483346     0.08500
C728        C  0.88367535  0.65014655  0.87384773    -0.13700
H729        H  0.85267816  0.67739567  0.87323651     0.12500
H730        H  0.78878802  0.55955640  0.87655207     0.12500
H731        H  0.84594340  0.55781475  0.87652112     0.12500
H732        H  0.91001526  0.67564187  0.87310292     0.12500
C733        C  0.72176753  0.65058051  0.75637865    -0.13700
C734        C  0.70938096  0.66124991  0.78311751     0.08500
C735        C  0.69007915  0.67974883  0.77853753    -0.13700
C736        C  0.68139945  0.68543230  0.74769000    -0.13700
C737        C  0.69237583  0.67321379  0.72098563     0.08500
C738        C  0.71357946  0.65672733  0.72561379    -0.13700
H739        H  0.73677756  0.63633025  0.75922900     0.12500
H740        H  0.68012073  0.68816430  0.79872402     0.12500
H741        H  0.66516720  0.69842567  0.74475064     0.12500
H742        H  0.72236733  0.64704337  0.70548942     0.12500
C743        C  0.72181344  0.64905345  0.99734788    -0.13700
C744        C  0.70887188  0.65917665  0.97069377     0.08500
C745        C  0.68977343  0.67785437  0.97545801    -0.13700
C746        C  0.68201680  0.68452123  0.50628642    -0.13700
C747        C  0.69358525  0.67302583  0.53292190     0.08500
C748        C  0.71443595  0.65611980  0.52820784    -0.13700
H749        H  0.73667481  0.63465613  0.99435517     0.12500
H750        H  0.67942374  0.68590140  0.95537316     0.12500
H751        H  0.66594967  0.69769616  0.50924463     0.12500
H752        H  0.72357757  0.64687946  0.54830100     0.12500
C753        C  0.40689664  0.20501108  0.86984722    -0.13700
C754        C  0.44026975  0.23879027  0.87191224     0.08500
C755        C  0.47406048  0.23947374  0.87330008    -0.13700
C756        C  0.47448539  0.20696592  0.87242593    -0.13700
C757        C  0.44111453  0.17319781  0.87013806     0.08500
C758        C  0.40732304  0.17249546  0.86895922    -0.13700
H759        H  0.38046263  0.20371120  0.86878932     0.12500
H760        H  0.50020418  0.26513692  0.87501997     0.12500
H761        H  0.50092343  0.20828348  0.87350041     0.12500
H762        H  0.38118316  0.14680685  0.86725664     0.12500
C763        C  0.37767206  0.36601806  0.77797406    -0.13700
C764        C  0.39063106  0.34183962  0.78250547     0.08500
C765        C  0.39408255  0.32358613  0.75585983    -0.13700
C766        C  0.38661306  0.33079354  0.72513057    -0.13700
C767        C  0.37602656  0.35676530  0.72044943     0.08500
C768        C  0.37074429  0.37363401  0.74721067    -0.13700
H769        H  0.37474611  0.38047580  0.79803447     0.12500
H770        H  0.40391768  0.30471556  0.75865057     0.12500
H771        H  0.39093007  0.31742829  0.70496255     0.12500
H772        H  0.36237024  0.39362413  0.74430163     0.12500
C773        C  0.41666207  0.33542486  0.99645047    -0.13700
C774        C  0.39936458  0.34046344  0.96983198     0.08500
C775        C  0.37262846  0.35040560  0.97476704    -0.13700
C776        C  0.36468664  0.35694373  0.50560666    -0.13700
C777        C  0.38309604  0.35342030  0.53217462     0.08500
C778        C  0.40853462  0.34173752  0.52733787    -0.13700
H779        H  0.43732278  0.32764677  0.99336867     0.12500
H780        H  0.35891509  0.35455395  0.95473810     0.12500
H781        H  0.34495669  0.36592861  0.50856035     0.12500
H782        H  0.42320128  0.33883859  0.54730926     0.12500
C783        C  0.57784374  0.44668174  0.87135648    -0.13700
C784        C  0.54343381  0.44472759  0.87000937     0.08500
C785        C  0.54263687  0.47722478  0.86861752    -0.13700
C786        C  0.57560733  0.51107317  0.86915585    -0.13700
C787        C  0.60998367  0.51306039  0.87127890     0.08500
C788        C  0.61083493  0.48056057  0.87205748    -0.13700
H789        H  0.57926417  0.42206157  0.87237671     0.12500
H790        H  0.51649299  0.47651261  0.86739577     0.12500
H791        H  0.57415280  0.53569228  0.86833728     0.12500
H792        H  0.63698033  0.48130749  0.87348958     0.12500
loop_ 
_geom_bond_atom_site_label_1 
_geom_bond_atom_site_label_2 
_geom_bond_distance 
_geom_bond_site_symmetry_2 
_ccdc_geom_bond_type 
O1            C4   1.267       .  A
O1           Cd6   2.438       .  S
C2           O11   1.263       .  A
C2            O7   1.264       .  A
C2          C388   1.476       .  S
O3            C9   1.266       .  A
O3           Cd6   2.487       .  S
C4           O12   1.268       .  A
C4          C358   1.474       .  S
C5           O10   1.267       .  A
C5            O8   1.263       .  A
C5          C378   1.480       .  S
Cd6          O13   2.459       .  S
Cd6          O12   2.446       .  S
Cd6          O11   2.455       .  S
Cd6           O7   2.476       .  S
Cd6          O10   2.486       .  S
Cd6           O8   2.457       .  S
C9           O13   1.264       .  A
C9          C368   1.480       .  S
O14          C17   1.265       .  A
O14         Cd19   2.422       .  S
C15          O24   1.264       .  A
C15          O20   1.263       .  A
C15         C391   1.475       .  S
O16          C22   1.266       .  A
O16         Cd19   2.482       .  S
C17          O25   1.269       .  A
C17         C328   1.475       .  S
C18          O23   1.267       .  A
C18          O21   1.263       .  A
C18         C338   1.477       .  S
Cd19         O26   2.455       .  S
Cd19         O25   2.466       .  S
Cd19         O24   2.467       .  S
Cd19         O20   2.457       .  S
Cd19         O23   2.494       .  S
Cd19         O21   2.434       .  S
C22          O26   1.263       .  A
C22         C348   1.477       .  S
O27          C30   1.264       .  A
O27         Cd32   2.471       .  S
C28          O37   1.269       .  A
C28          O33   1.266       .  A
C28         C308   1.473       .  S
O29          C35   1.266       .  A
O29         Cd32   2.494       .  S
C30          O38   1.264       .  A
C30         C318   1.475       .  S
C31          O36   1.267       .  A
C31          O34   1.263       .  A
C31         C371   1.480       .  S
Cd32         O39   2.462       .  S
Cd32         O38   2.446       .  S
Cd32         O37   2.462       .  S
Cd32         O33   2.419       .  S
Cd32         O36   2.499       .  S
Cd32         O34   2.456       .  S
C35          O39   1.264       .  A
C35         C381   1.482       .  S
O40          C43   1.267       .  A
O40         Cd45   2.433       .  S
C41          O50   1.264       .  A
C41          O46   1.264       .  A
C41         C321   1.477       .  S
O42          C48   1.268       .  A
O42         Cd45   2.482       .  S
C43          O51   1.268       .  A
C43         C298   1.476       .  S
C44          O49   1.267       .  A
C44          O47   1.263       .  A
C44         C341   1.477       .  S
Cd45         O52   2.439       .  S
Cd45         O51   2.456       .  S
Cd45         O50   2.468       .  S
Cd45         O46   2.464       .  S
Cd45         O49   2.478       .  S
Cd45         O47   2.451       .  S
C48          O52   1.264       .  A
C48         C351   1.477       .  S
O53          C56   1.267       .  A
O53         Cd58   2.429       .  S
C54          O63   1.263       .  A
C54          O59   1.265       .  A
C54         C288   1.480       .  S
O55          C61   1.267       .  A
O55         Cd58   2.474       .  S
C56          O64   1.267       .  A
C56         C311   1.473       .  S
C57          O62   1.266       .  A
C57          O60   1.264       .  A
C57         C268   1.478       .  S
Cd58         O65   2.457       .  S
Cd58         O64   2.452       .  S
Cd58         O63   2.454       .  S
Cd58         O59   2.493       .  S
Cd58         O62   2.477       .  S
Cd58         O60   2.457       .  S
C61          O65   1.264       .  A
C61         C278   1.477       .  S
O66          C69   1.264       .  A
O66         Cd71   2.479       .  S
C67          O76   1.268       .  A
C67          O72   1.266       .  A
C67         C258   1.474       .  S
O68          C74   1.268       .  A
O68         Cd71   2.496       .  S
C69          O77   1.264       .  A
C69         C291   1.479       .  S
C70          O75   1.267       .  A
C70          O73   1.263       .  A
C70         C238   1.479       .  S
Cd71         O78   2.451       .  S
Cd71         O77   2.459       .  S
Cd71         O76   2.459       .  S
Cd71         O72   2.422       .  S
Cd71         O75   2.489       .  S
Cd71         O73   2.448       .  S
C74          O78   1.263       .  A
C74         C248   1.481       .  S
O79          C82   1.266       .  A
O79         Cd84   2.423       .  S
C80          O89   1.264   1_655  A
C80          O85   1.264       .  A
C80         C228   1.474       .  S
O81          C87   1.268       .  A
O81         Cd84   2.489   1_455  S
C82          O90   1.268       .  A
C82         C218   1.472       .  S
C83          O88   1.268       .  A
C83          O86   1.264   1_455  A
C83         C271   1.480       .  S
Cd84         O91   2.454       .  S
Cd84         O90   2.450       .  S
Cd84         O89   2.449   1_655  S
Cd84         O85   2.461       .  S
Cd84         O88   2.493   1_655  S
Cd84         O86   2.449       .  S
C87          O91   1.263   1_455  A
C87         C281   1.481       .  S
O92          C95   1.267       .  A
O92         Cd97   2.444       .  S
C93         O102   1.263   1_655  A
C93          O98   1.265       .  A
C93         C231   1.474       .  S
O94         C100   1.267       .  A
O94         Cd97   2.482   1_455  S
C95         O103   1.268       .  A
C95         C331   1.475       .  S
C96         O101   1.266       .  A
C96          O99   1.263   1_455  A
C96         C251   1.479       .  S
Cd97        O104   2.456       .  S
Cd97        O103   2.445       .  S
Cd97        O102   2.445   1_655  S
Cd97         O98   2.475       .  S
Cd97        O101   2.483   1_655  S
Cd97         O99   2.462       .  S
C100        O104   1.264   1_455  A
C100        C241   1.478       .  S
O105        C108   1.266       .  A
O105       Cd110   2.434       .  S
C106        O115   1.264       .  A
C106        O111   1.263       .  A
C106        C208   1.474       .  S
O107        C113   1.263       .  A
O107       Cd110   2.455       .  S
C108        O116   1.268       .  A
C108        C221   1.474       .  S
C109        O114   1.267       .  A
C109        O112   1.263       .  A
C109        C188   1.477       .  S
Cd110       O117   2.492       .  S
Cd110       O116   2.459       .  S
Cd110       O115   2.472       .  S
Cd110       O111   2.445       .  S
Cd110       O114   2.483       .  S
Cd110       O112   2.456       .  S
C113        O117   1.267       .  A
C113        C198   1.481       .  S
O118        C121   1.267       .  A
O118       Cd123   2.434       .  S
C119        O128   1.264       .  A
C119        O124   1.265       .  A
C119        C211   1.473       .  S
O120        C126   1.268       .  A
O120       Cd123   2.478       .  S
C121        O129   1.268       .  A
C121        C361   1.473       .  S
C122        O127   1.268       .  A
C122        O125   1.264       .  A
C122        C168   1.475       .  S
Cd123       O130   2.441       .  S
Cd123       O129   2.441       .  S
Cd123       O128   2.451       .  S
Cd123       O124   2.448       .  S
Cd123       O127   2.479       .  S
Cd123       O125   2.438       .  S
C126        O130   1.264       .  A
C126        C178   1.477       .  S
O131        C134   1.266       .  A
O131       Cd136   2.417       .  S
C132        O141   1.263       .  A
C132        O137   1.264       .  A
C132        C158   1.481       .  S
O133        C139   1.266   1_545  A
O133       Cd136   2.488   1_545  S
C134        O142   1.269       .  A
C134        C261   1.475       .  S
C135        O140   1.263       .  A
C135        O138   1.267   1_565  A
C135        C171   1.475   1_565  S
Cd136       O143   2.453       .  S
Cd136       O142   2.473       .  S
Cd136       O141   2.470       .  S
Cd136       O137   2.488       .  S
Cd136       O140   2.442       .  S
Cd136       O138   2.479   1_565  S
C139        O143   1.263       .  A
C139        C181   1.479       .  S
O144        C147   1.267       .  A
O144       Cd149   2.443       .  S
C145        O154   1.263       .  A
C145        O150   1.265       .  A
C145        C161   1.480       .  S
O146        C152   1.268       .  A
O146       Cd149   2.491       .  S
C147        O155   1.268       .  A
C147        C301   1.477       .  S
C148        O153   1.267       .  A
C148        O151   1.263       .  A
C148        C191   1.479       .  S
Cd149       O156   2.452       .  S
Cd149       O155   2.465       .  S
Cd149       O154   2.466       .  S
Cd149       O150   2.483       .  S
Cd149       O153   2.487       .  S
Cd149       O151   2.451       .  S
C152        O156   1.264       .  A
C152        C201   1.479       .  S
C157        C158   1.405       .  A
C157        C162   1.398       .  A
C157        H163   1.083   1_565  S
C158        C159   1.406       .  A
C159        C160   1.400       .  A
C159        H164   1.083       .  S
C160        C161   1.405       .  A
C160        H165   1.082       .  S
C161        C162   1.405       .  A
C162        H166   1.083   1_565  S
C167        C168   1.406       .  A
C167        C172   1.397       .  A
C167        H173   1.083       .  S
C168        C169   1.403   1_545  A
C169        C170   1.397       .  A
C169        H174   1.083       .  S
C170        C171   1.406   1_565  A
C170        H175   1.083       .  S
C171        C172   1.403       .  A
C172        H176   1.083       .  S
C177        C178   1.406       .  A
C177        C578   1.399       .  A
C177        H183   1.084       .  S
C178        C179   1.403   1_545  A
C179        C576   1.398       .  A
C179        H184   1.082       .  S
C180        C181   1.406   1_556  A
C180        C575   1.398       .  A
C180        H185   1.083       .  S
C181        C182   1.405   1_565  A
C182        C573   1.399   1_554  A
C182        H186   1.082       .  S
C187        C188   1.403   1_565  A
C187        C588   1.398       .  A
C187        H193   1.082       .  S
C188        C189   1.405       .  A
C189        C586   1.399       .  A
C189        H194   1.084       .  S
C190        C191   1.405   1_545  A
C190        C585   1.399       .  A
C190        H195   1.082       .  S
C191        C192   1.406       .  A
C192        C583   1.398   1_554  A
C192        H196   1.084       .  S
C197        C198   1.407       .  A
C197        C202   1.399       .  A
C197        H203   1.083       .  S
C198        C199   1.404   1_545  A
C199        C200   1.400       .  A
C199        H204   1.083       .  S
C200        C201   1.406       .  A
C200        H205   1.083       .  S
C201        C202   1.404   1_565  A
C202        H206   1.083       .  S
C207        C208   1.404       .  A
C207        C212   1.394       .  A
C207        H213   1.083       .  S
C208        C209   1.405       .  A
C209        C210   1.398       .  A
C209        H214   1.083       .  S
C210        C211   1.405       .  A
C210        H215   1.083       .  S
C211        C212   1.403       .  A
C212        H216   1.082       .  S
C217        C218   1.404       .  A
C217        C222   1.394       .  A
C217        H223   1.083       .  S
C218        C219   1.404       .  A
C219        C220   1.397       .  A
C219        H224   1.083       .  S
C220        C221   1.404       .  A
C220        H225   1.083       .  S
C221        C222   1.404       .  A
C222        H226   1.083       .  S
C227        C228   1.405       .  A
C227        C232   1.398       .  A
C227        H233   1.083       .  S
C228        C229   1.403   1_655  A
C229        C230   1.394       .  A
C229        H234   1.083       .  S
C230        C231   1.404   1_455  A
C230        H235   1.083       .  S
C231        C232   1.405       .  A
C232        H236   1.082       .  S
C237        C238   1.406       .  A
C237        C242   1.398       .  A
C237        H243   1.083       .  S
C238        C239   1.404       .  A
C239        C240   1.399       .  A
C239        H244   1.083       .  S
C240        C241   1.406       .  A
C240        H245   1.083   1_455  S
C241        C242   1.404       .  A
C242        H246   1.082       .  S
C247        C248   1.404       .  A
C247        C648   1.400   1_554  A
C247        H253   1.082       .  S
C248        C249   1.407       .  A
C249        C646   1.398   1_554  A
C249        H254   1.083       .  S
C250        C251   1.404       .  A
C250        C645   1.398       .  A
C250        H255   1.083       .  S
C251        C252   1.406       .  A
C252        C643   1.400       .  A
C252        H256   1.083   1_455  S
C257        C258   1.403       .  A
C257        C262   1.392       .  A
C257        H263   1.083       .  S
C258        C259   1.405       .  A
C259        C260   1.400       .  A
C259        H264   1.083       .  S
C260        C261   1.405       .  A
C260        H265   1.083       .  S
C261        C262   1.404       .  A
C262        H266   1.083       .  S
C267        C268   1.406       .  A
C267        C272   1.399       .  A
C267        H273   1.083       .  S
C268        C269   1.404       .  A
C269        C270   1.398       .  A
C269        H274   1.083       .  S
C270        C271   1.406       .  A
C270        H275   1.083   1_455  S
C271        C272   1.404       .  A
C272        H276   1.082       .  S
C277        C278   1.405       .  A
C277        C678   1.399   1_554  A
C277        H283   1.083       .  S
C278        C279   1.403       .  A
C279        C676   1.398   1_554  A
C279        H284   1.083       .  S
C280        C281   1.407       .  A
C280        C675   1.398       .  A
C280        H285   1.083   1_455  S
C281        C282   1.405       .  A
C282        C673   1.399       .  A
C282        H286   1.082       .  S
C287        C288   1.406       .  A
C287        C292   1.401       .  A
C287        H293   1.082       .  S
C288        C289   1.405       .  A
C289        C290   1.396       .  A
C289        H294   1.083       .  S
C290        C291   1.404       .  A
C290        H295   1.083       .  S
C291        C292   1.406       .  A
C292        H296   1.083       .  S
C297        C298   1.404       .  A
C297        C302   1.396       .  A
C297        H303   1.083       .  S
C298        C299   1.405       .  A
C299        C300   1.399       .  A
C299        H304   1.083       .  S
C300        C301   1.405       .  A
C300        H305   1.083       .  S
C301        C302   1.405       .  A
C302        H306   1.082       .  S
C307        C308   1.404       .  A
C307        C312   1.398       .  A
C307        H313   1.083       .  S
C308        C309   1.404       .  A
C309        C310   1.393       .  A
C309        H314   1.083       .  S
C310        C311   1.403       .  A
C310        H315   1.083       .  S
C311        C312   1.405       .  A
C312        H316   1.083       .  S
C317        C318   1.405       .  A
C317        C322   1.398       .  A
C317        H323   1.083       .  S
C318        C319   1.404       .  A
C319        C320   1.396       .  A
C319        H324   1.083       .  S
C320        C321   1.404       .  A
C320        H325   1.083       .  S
C321        C322   1.405       .  A
C322        H326   1.083       .  S
C327        C328   1.404       .  A
C327        C332   1.397       .  A
C327        H333   1.083       .  S
C328        C329   1.405       .  A
C329        C330   1.395       .  A
C329        H334   1.083       .  S
C330        C331   1.404       .  A
C330        H335   1.083       .  S
C331        C332   1.405       .  A
C332        H336   1.083       .  S
C337        C338   1.405       .  A
C337        C342   1.396       .  A
C337        H343   1.083       .  S
C338        C339   1.404       .  A
C339        C340   1.400       .  A
C339        H344   1.083       .  S
C340        C341   1.407       .  A
C340        H345   1.083       .  S
C341        C342   1.402       .  A
C342        H346   1.083       .  S
C347        C348   1.406       .  A
C347        C748   1.398       .  A
C347        H353   1.083       .  S
C348        C349   1.403       .  A
C349        C746   1.397       .  A
C349        H354   1.083       .  S
C350        C351   1.405       .  A
C350        C745   1.397   1_554  A
C350        H355   1.083       .  S
C351        C352   1.404       .  A
C352        C743   1.398   1_554  A
C352        H356   1.083       .  S
C357        C358   1.404       .  A
C357        C362   1.396       .  A
C357        H363   1.083       .  S
C358        C359   1.404       .  A
C359        C360   1.395       .  A
C359        H364   1.083       .  S
C360        C361   1.404       .  A
C360        H365   1.083       .  S
C361        C362   1.404       .  A
C362        H366   1.083       .  S
C367        C368   1.405       .  A
C367        C372   1.399       .  A
C367        H373   1.083       .  S
C368        C369   1.406       .  A
C369        C370   1.400       .  A
C369        H374   1.083       .  S
C370        C371   1.404       .  A
C370        H375   1.082       .  S
C371        C372   1.406       .  A
C372        H376   1.083       .  S
C377        C378   1.407       .  A
C377        C778   1.400       .  A
C377        H383   1.083       .  S
C378        C379   1.404       .  A
C379        C776   1.399       .  A
C379        H384   1.083       .  S
C380        C381   1.406       .  A
C380        C775   1.399   1_554  A
C380        H385   1.083       .  S
C381        C382   1.405       .  A
C382        C773   1.400   1_554  A
C382        H386   1.083       .  S
C387        C388   1.404       .  A
C387        C392   1.397       .  A
C387        H393   1.083       .  S
C388        C389   1.405       .  A
C389        C390   1.396       .  A
C389        H394   1.083       .  S
C390        C391   1.404       .  A
C390        H395   1.083       .  S
C391        C392   1.405       .  A
C392        H396   1.083       .  S
O397        C400   1.267       .  A
O397       Cd402   2.438       .  S
C398        O407   1.263       .  A
C398        O403   1.264       .  A
C398        C784   1.476       .  S
O399        C405   1.266       .  A
O399       Cd402   2.487       .  S
C400        O408   1.268       .  A
C400        C754   1.474       .  S
C401        O406   1.267       .  A
C401        O404   1.263       .  A
C401        C774   1.480       .  S
Cd402       O409   2.459       .  S
Cd402       O408   2.446       .  S
Cd402       O407   2.455       .  S
Cd402       O403   2.476       .  S
Cd402       O406   2.486       .  S
Cd402       O404   2.457       .  S
C405        O409   1.264       .  A
C405        C764   1.480       .  S
O410        C413   1.265       .  A
O410       Cd415   2.422       .  S
C411        O420   1.264       .  A
C411        O416   1.263       .  A
C411        C787   1.475       .  S
O412        C418   1.266       .  A
O412       Cd415   2.482       .  S
C413        O421   1.269       .  A
C413        C724   1.475       .  S
C414        O419   1.267       .  A
C414        O417   1.263       .  A
C414        C734   1.477       .  S
Cd415       O422   2.455       .  S
Cd415       O421   2.466       .  S
Cd415       O420   2.467       .  S
Cd415       O416   2.457       .  S
Cd415       O419   2.494       .  S
Cd415       O417   2.434       .  S
C418        O422   1.263       .  A
C418        C744   1.477       .  S
O423        C426   1.264       .  A
O423       Cd428   2.471       .  S
C424        O433   1.269       .  A
C424        O429   1.266       .  A
C424        C704   1.473       .  S
O425        C431   1.266       .  A
O425       Cd428   2.494       .  S
C426        O434   1.264       .  A
C426        C714   1.475       .  S
C427        O432   1.267       .  A
C427        O430   1.263       .  A
C427        C767   1.480       .  S
Cd428       O435   2.462       .  S
Cd428       O434   2.446       .  S
Cd428       O433   2.462       .  S
Cd428       O429   2.419       .  S
Cd428       O432   2.499       .  S
Cd428       O430   2.456       .  S
C431        O435   1.264       .  A
C431        C777   1.482       .  S
O436        C439   1.267       .  A
O436       Cd441   2.433       .  S
C437        O446   1.264       .  A
C437        O442   1.264       .  A
C437        C717   1.477       .  S
O438        C444   1.268       .  A
O438       Cd441   2.482       .  S
C439        O447   1.268       .  A
C439        C694   1.476       .  S
C440        O445   1.267       .  A
C440        O443   1.263       .  A
C440        C737   1.477       .  S
Cd441       O448   2.439       .  S
Cd441       O447   2.456       .  S
Cd441       O446   2.468       .  S
Cd441       O442   2.464       .  S
Cd441       O445   2.478       .  S
Cd441       O443   2.451       .  S
C444        O448   1.264       .  A
C444        C747   1.477       .  S
O449        C452   1.267       .  A
O449       Cd454   2.429       .  S
C450        O459   1.263       .  A
C450        O455   1.265       .  A
C450        C684   1.480       .  S
O451        C457   1.267       .  A
O451       Cd454   2.474       .  S
C452        O460   1.267       .  A
C452        C707   1.473       .  S
C453        O458   1.266       .  A
C453        O456   1.264       .  A
C453        C664   1.478       .  S
Cd454       O461   2.457       .  S
Cd454       O460   2.452       .  S
Cd454       O459   2.454       .  S
Cd454       O455   2.493       .  S
Cd454       O458   2.477       .  S
Cd454       O456   2.457       .  S
C457        O461   1.264       .  A
C457        C674   1.477       .  S
O462        C465   1.264       .  A
O462       Cd467   2.479       .  S
C463        O472   1.268       .  A
C463        O468   1.266       .  A
C463        C654   1.474       .  S
O464        C470   1.268       .  A
O464       Cd467   2.496       .  S
C465        O473   1.264       .  A
C465        C687   1.479       .  S
C466        O471   1.267       .  A
C466        O469   1.263       .  A
C466        C634   1.479       .  S
Cd467       O474   2.451       .  S
Cd467       O473   2.459       .  S
Cd467       O472   2.459       .  S
Cd467       O468   2.422       .  S
Cd467       O471   2.489       .  S
Cd467       O469   2.448       .  S
C470        O474   1.263       .  A
C470        C644   1.481       .  S
O475        C478   1.266       .  A
O475       Cd480   2.423       .  S
C476        O485   1.264   1_655  A
C476        O481   1.264       .  A
C476        C624   1.474       .  S
O477        C483   1.268       .  A
O477       Cd480   2.489   1_455  S
C478        O486   1.268       .  A
C478        C614   1.472       .  S
C479        O484   1.268       .  A
C479        O482   1.264   1_455  A
C479        C667   1.480       .  S
Cd480       O487   2.454       .  S
Cd480       O486   2.450       .  S
Cd480       O485   2.449   1_655  S
Cd480       O481   2.461       .  S
Cd480       O484   2.493   1_655  S
Cd480       O482   2.449       .  S
C483        O487   1.263   1_455  A
C483        C677   1.481       .  S
O488        C491   1.267       .  A
O488       Cd493   2.444       .  S
C489        O498   1.263   1_655  A
C489        O494   1.265       .  A
C489        C627   1.474       .  S
O490        C496   1.267       .  A
O490       Cd493   2.482   1_455  S
C491        O499   1.268       .  A
C491        C727   1.475       .  S
C492        O497   1.266       .  A
C492        O495   1.263   1_455  A
C492        C647   1.479       .  S
Cd493       O500   2.456       .  S
Cd493       O499   2.445       .  S
Cd493       O498   2.445   1_655  S
Cd493       O494   2.475       .  S
Cd493       O497   2.483   1_655  S
Cd493       O495   2.462       .  S
C496        O500   1.264   1_455  A
C496        C637   1.478       .  S
O501        C504   1.266       .  A
O501       Cd506   2.434       .  S
C502        O511   1.264       .  A
C502        O507   1.263       .  A
C502        C604   1.474       .  S
O503        C509   1.263       .  A
O503       Cd506   2.455       .  S
C504        O512   1.268       .  A
C504        C617   1.474       .  S
C505        O510   1.267       .  A
C505        O508   1.263       .  A
C505        C584   1.477       .  S
Cd506       O513   2.492       .  S
Cd506       O512   2.459       .  S
Cd506       O511   2.472       .  S
Cd506       O507   2.445       .  S
Cd506       O510   2.483       .  S
Cd506       O508   2.456       .  S
C509        O513   1.267       .  A
C509        C594   1.481       .  S
O514        C517   1.267       .  A
O514       Cd519   2.434       .  S
C515        O524   1.264       .  A
C515        O520   1.265       .  A
C515        C607   1.473       .  S
O516        C522   1.268       .  A
O516       Cd519   2.478       .  S
C517        O525   1.268       .  A
C517        C757   1.473       .  S
C518        O523   1.268       .  A
C518        O521   1.264       .  A
C518        C564   1.475       .  S
Cd519       O526   2.441       .  S
Cd519       O525   2.441       .  S
Cd519       O524   2.451       .  S
Cd519       O520   2.448       .  S
Cd519       O523   2.479       .  S
Cd519       O521   2.438       .  S
C522        O526   1.264       .  A
C522        C574   1.477       .  S
O527        C530   1.266       .  A
O527       Cd532   2.417       .  S
C528        O537   1.263       .  A
C528        O533   1.264       .  A
C528        C554   1.481       .  S
O529        C535   1.266   1_545  A
O529       Cd532   2.488   1_545  S
C530        O538   1.269       .  A
C530        C657   1.475       .  S
C531        O536   1.263       .  A
C531        O534   1.267   1_565  A
C531        C567   1.475   1_565  S
Cd532       O539   2.453       .  S
Cd532       O538   2.473       .  S
Cd532       O537   2.470       .  S
Cd532       O533   2.488       .  S
Cd532       O536   2.442       .  S
Cd532       O534   2.479   1_565  S
C535        O539   1.263       .  A
C535        C577   1.479       .  S
O540        C543   1.267       .  A
O540       Cd545   2.443       .  S
C541        O550   1.263       .  A
C541        O546   1.265       .  A
C541        C557   1.480       .  S
O542        C548   1.268       .  A
O542       Cd545   2.491       .  S
C543        O551   1.268       .  A
C543        C697   1.477       .  S
C544        O549   1.267       .  A
C544        O547   1.263       .  A
C544        C587   1.479       .  S
Cd545       O552   2.452       .  S
Cd545       O551   2.465       .  S
Cd545       O550   2.466       .  S
Cd545       O546   2.483       .  S
Cd545       O549   2.487       .  S
Cd545       O547   2.451       .  S
C548        O552   1.264       .  A
C548        C597   1.479       .  S
C553        C554   1.405       .  A
C553        C558   1.398       .  A
C553        H559   1.083   1_565  S
C554        C555   1.406       .  A
C555        C556   1.400       .  A
C555        H560   1.083       .  S
C556        C557   1.405       .  A
C556        H561   1.082       .  S
C557        C558   1.405       .  A
C558        H562   1.083   1_565  S
C563        C564   1.406       .  A
C563        C568   1.397       .  A
C563        H569   1.083       .  S
C564        C565   1.403   1_545  A
C565        C566   1.397       .  A
C565        H570   1.083       .  S
C566        C567   1.406   1_565  A
C566        H571   1.083       .  S
C567        C568   1.403       .  A
C568        H572   1.083       .  S
C573        C574   1.406       .  A
C573        H579   1.084       .  S
C574        C575   1.403   1_545  A
C575        H580   1.082       .  S
C576        C577   1.406       .  A
C576        H581   1.083       .  S
C577        C578   1.405   1_565  A
C578        H582   1.082       .  S
C583        C584   1.403   1_565  A
C583        H589   1.082       .  S
C584        C585   1.405   1_556  A
C585        H590   1.084   1_554  S
C586        C587   1.405   1_545  A
C586        H591   1.082       .  S
C587        C588   1.406       .  A
C588        H592   1.084       .  S
C593        C594   1.407       .  A
C593        C598   1.399       .  A
C593        H599   1.083       .  S
C594        C595   1.404   1_545  A
C595        C596   1.400       .  A
C595        H600   1.083       .  S
C596        C597   1.406       .  A
C596        H601   1.083       .  S
C597        C598   1.404   1_565  A
C598        H602   1.083       .  S
C603        C604   1.404       .  A
C603        C608   1.394       .  A
C603        H609   1.083       .  S
C604        C605   1.405       .  A
C605        C606   1.398       .  A
C605        H610   1.083       .  S
C606        C607   1.405       .  A
C606        H611   1.083       .  S
C607        C608   1.403       .  A
C608        H612   1.082       .  S
C613        C614   1.404       .  A
C613        C618   1.394       .  A
C613        H619   1.083       .  S
C614        C615   1.404       .  A
C615        C616   1.397       .  A
C615        H620   1.083       .  S
C616        C617   1.404       .  A
C616        H621   1.083       .  S
C617        C618   1.404       .  A
C618        H622   1.083       .  S
C623        C624   1.405       .  A
C623        C628   1.398       .  A
C623        H629   1.083       .  S
C624        C625   1.403   1_655  A
C625        C626   1.394       .  A
C625        H630   1.083       .  S
C626        C627   1.404   1_455  A
C626        H631   1.083       .  S
C627        C628   1.405       .  A
C628        H632   1.082       .  S
C633        C634   1.406       .  A
C633        C638   1.398       .  A
C633        H639   1.083       .  S
C634        C635   1.404       .  A
C635        C636   1.399       .  A
C635        H640   1.083       .  S
C636        C637   1.406       .  A
C636        H641   1.083   1_455  S
C637        C638   1.404       .  A
C638        H642   1.082       .  S
C643        C644   1.404       .  A
C643        H649   1.082       .  S
C644        C645   1.407       .  A
C645        H650   1.083       .  S
C646        C647   1.404       .  A
C646        H651   1.083       .  S
C647        C648   1.406       .  A
C648        H652   1.083   1_455  S
C653        C654   1.403       .  A
C653        C658   1.392       .  A
C653        H659   1.083       .  S
C654        C655   1.405       .  A
C655        C656   1.400       .  A
C655        H660   1.083       .  S
C656        C657   1.405       .  A
C656        H661   1.083       .  S
C657        C658   1.404       .  A
C658        H662   1.083       .  S
C663        C664   1.406       .  A
C663        C668   1.399       .  A
C663        H669   1.083       .  S
C664        C665   1.404       .  A
C665        C666   1.398       .  A
C665        H670   1.083       .  S
C666        C667   1.406       .  A
C666        H671   1.083   1_455  S
C667        C668   1.404       .  A
C668        H672   1.082       .  S
C673        C674   1.405       .  A
C673        H679   1.083       .  S
C674        C675   1.403       .  A
C675        H680   1.083       .  S
C676        C677   1.407       .  A
C676        H681   1.083   1_455  S
C677        C678   1.405       .  A
C678        H682   1.082       .  S
C683        C684   1.406       .  A
C683        C688   1.401       .  A
C683        H689   1.082       .  S
C684        C685   1.405       .  A
C685        C686   1.396       .  A
C685        H690   1.083       .  S
C686        C687   1.404       .  A
C686        H691   1.083       .  S
C687        C688   1.406       .  A
C688        H692   1.083       .  S
C693        C694   1.404       .  A
C693        C698   1.396       .  A
C693        H699   1.083       .  S
C694        C695   1.405       .  A
C695        C696   1.399       .  A
C695        H700   1.083       .  S
C696        C697   1.405       .  A
C696        H701   1.083       .  S
C697        C698   1.405       .  A
C698        H702   1.082       .  S
C703        C704   1.404       .  A
C703        C708   1.398       .  A
C703        H709   1.083       .  S
C704        C705   1.404       .  A
C705        C706   1.393       .  A
C705        H710   1.083       .  S
C706        C707   1.403       .  A
C706        H711   1.083       .  S
C707        C708   1.405       .  A
C708        H712   1.083       .  S
C713        C714   1.405       .  A
C713        C718   1.398       .  A
C713        H719   1.083       .  S
C714        C715   1.404       .  A
C715        C716   1.396       .  A
C715        H720   1.083       .  S
C716        C717   1.404       .  A
C716        H721   1.083       .  S
C717        C718   1.405       .  A
C718        H722   1.083       .  S
C723        C724   1.404       .  A
C723        C728   1.397       .  A
C723        H729   1.083       .  S
C724        C725   1.405       .  A
C725        C726   1.395       .  A
C725        H730   1.083       .  S
C726        C727   1.404       .  A
C726        H731   1.083       .  S
C727        C728   1.405       .  A
C728        H732   1.083       .  S
C733        C734   1.405       .  A
C733        C738   1.396       .  A
C733        H739   1.083       .  S
C734        C735   1.404       .  A
C735        C736   1.400       .  A
C735        H740   1.083       .  S
C736        C737   1.407       .  A
C736        H741   1.083       .  S
C737        C738   1.402       .  A
C738        H742   1.083       .  S
C743        C744   1.406       .  A
C743        H749   1.083       .  S
C744        C745   1.403       .  A
C745        H750   1.083       .  S
C746        C747   1.405       .  A
C746        H751   1.083       .  S
C747        C748   1.404       .  A
C748        H752   1.083       .  S
C753        C754   1.404       .  A
C753        C758   1.396       .  A
C753        H759   1.083       .  S
C754        C755   1.404       .  A
C755        C756   1.395       .  A
C755        H760   1.083       .  S
C756        C757   1.404       .  A
C756        H761   1.083       .  S
C757        C758   1.404       .  A
C758        H762   1.083       .  S
C763        C764   1.405       .  A
C763        C768   1.399       .  A
C763        H769   1.083       .  S
C764        C765   1.406       .  A
C765        C766   1.400       .  A
C765        H770   1.083       .  S
C766        C767   1.404       .  A
C766        H771   1.082       .  S
C767        C768   1.406       .  A
C768        H772   1.083       .  S
C773        C774   1.407       .  A
C773        H779   1.083       .  S
C774        C775   1.404       .  A
C775        H780   1.083       .  S
C776        C777   1.406       .  A
C776        H781   1.083       .  S
C777        C778   1.405       .  A
C778        H782   1.083       .  S
C783        C784   1.404       .  A
C783        C788   1.397       .  A
C783        H789   1.083       .  S
C784        C785   1.405       .  A
C785        C786   1.396       .  A
C785        H790   1.083       .  S
C786        C787   1.404       .  A
C786        H791   1.083       .  S
C787        C788   1.405       .  A
C788        H792   1.083       .  S
