geometry optimzed in LAMMPS
_audit_creation_date              2020-11-30 
_audit_creation_method            'lammps2cif' 
_symmetry_space_group_name_H-M    'P1' 
_symmetry_Int_Tables_number       1 
_symmetry_cell_setting            triclinic 
loop_ 
_symmetry_equiv_pos_as_xyz 
  x,y,z 
_cell_length_a                    38.64341779 
_cell_length_b                    38.63528702196136 
_cell_length_c                    32.77088470449213 
_cell_angle_alpha                 89.98121837482843 
_cell_angle_beta                  90.04066317327295 
_cell_angle_gamma                 120.38673065627498 
loop_ 
_atom_site_label 
_atom_site_type_symbol 
_atom_site_fract_x 
_atom_site_fract_y 
_atom_site_fract_z 
_atom_site_charge 
C1          C  0.26674635  0.27574306  0.01030141     0.03000
C2          C  0.28588451  0.29798950  0.04534770    -0.13100
C3          C  0.31971922  0.33633188  0.04204223     0.00500
C4          C  0.33714086  0.35088485  0.50255994    -0.11700
C5          C  0.31626024  0.33118026  0.46703349     0.03000
C6          C  0.28236287  0.29248083  0.47005808    -0.11100
H7          H  0.27467513  0.28522694  0.07525259     0.08600
H8          H  0.36396289  0.38022899  0.50033613     0.06100
H9          H  0.26636909  0.27662178  0.44276686     0.06000
C10         C  0.68390611  0.69296161  0.00331564     0.03000
C11         C  0.66615079  0.67927881  0.04196807    -0.13100
C12         C  0.62785284  0.64487645  0.04519783     0.00500
C13         C  0.60926833  0.62265195  0.50961254    -0.11700
C14         C  0.62644513  0.63641642  0.47117242     0.03000
C15         C  0.66444061  0.67065515  0.46801294    -0.11100
H16         H  0.68140490  0.69602018  0.06916140     0.08600
H17         H  0.57976714  0.59605411  0.51188522     0.06100
H18         H  0.67755926  0.68117672  0.43810288     0.06000
N19         N  0.46822174  0.49674452  0.19432011    -0.36700
N20         N  0.52235556  0.54537337  0.25802122    -0.57300
N21         N  0.46596200  0.48964984  0.31826634    -0.36700
N22         N  0.41347374  0.43935785  0.25460989    -0.57300
C23         C  0.50156334  0.52084480  0.17229137     0.26900
C24         C  0.44412781  0.46496481  0.17048086     0.26900
C25         C  0.49867994  0.51210105  0.34160707     0.26800
C26         C  0.44155663  0.45592932  0.33962692     0.26800
C27         C  0.54060540  0.57036759  0.22626067     0.35500
C28         C  0.53886545  0.56700961  0.29217385     0.35500
C29         C  0.39042236  0.42471595  0.22100573     0.35500
C30         C  0.38932999  0.42081197  0.28682313     0.35500
C31         C  0.49842265  0.50431515  0.13396332    -0.22000
C32         C  0.46221875  0.46905018  0.13282654    -0.22000
C33         C  0.49497636  0.49255564  0.37828192    -0.22000
C34         C  0.45895953  0.45705088  0.37698170    -0.22000
C35         C  0.56910843  0.60802653  0.24022124    -0.23100
C36         C  0.56800591  0.60590640  0.28212610    -0.23100
C37         C  0.35139242  0.39659873  0.23184294    -0.23100
C38         C  0.35071034  0.39412570  0.27371121    -0.23100
C39         C  0.53375432  0.55846051  0.18498436    -0.18400
C40         C  0.40511974  0.43371704  0.18072886    -0.18400
C41         C  0.40278740  0.42554126  0.32750002    -0.18400
C42         C  0.53027095  0.55109652  0.33203755    -0.18400
H43         H  0.51989786  0.51651342  0.10925102     0.14500
H44         H  0.45039221  0.44889624  0.10699637     0.14500
H45         H  0.51582628  0.50302567  0.40361433     0.14500
H46         H  0.44671061  0.43484557  0.40105680     0.14500
H47         H  0.58902147  0.63402661  0.22211918     0.12800
H48         H  0.58696656  0.62998037  0.30280724     0.12800
H49         H  0.32628409  0.37913971  0.21165118     0.12800
H50         H  0.32502980  0.37440924  0.29228841     0.12800
H51         H  0.46019886  0.50376174  0.22202408     0.26000
H52         H  0.45858517  0.49924943  0.29176834     0.26000
C53         C  0.69368016  0.98078928  0.00600304     0.03000
C54         C  0.67950127  0.98326619  0.46747895    -0.13100
C55         C  0.64327700  0.98354392  0.46459378     0.00500
C56         C  0.62298447  0.98381470  0.00053349    -0.11700
C57         C  0.63714749  0.98038011  0.03871519     0.03000
C58         C  0.67236084  0.97867202  0.04136527    -0.11100
H59         H  0.69659504  0.98625579  0.44018154     0.08600
H60         H  0.59554511  0.98493119  0.99864177     0.06100
H61         H  0.68383870  0.97693137  0.07102708     0.06000
C62         C  0.27737426  0.98320738  0.99812962     0.03000
C63         C  0.29492774  0.98500006  0.03650891    -0.13100
C64         C  0.33305823  0.98861463  0.03884747     0.00500
C65         C  0.35289840  0.98962010  0.00266296    -0.11700
C66         C  0.33577503  0.98409421  0.46653701     0.03000
C67         C  0.29839208  0.98138733  0.46385204    -0.11100
H68         H  0.27930269  0.98416387  0.06425483     0.08600
H69         H  0.38193294  0.99171221  0.00412195     0.06100
H70         H  0.28626094  0.98175435  0.43411352     0.06000
N71         N  0.48991626  0.98627607  0.31435684    -0.36700
N72         N  0.54041184  0.98319720  0.25193176    -0.57300
N73         N  0.48570738  0.98447796  0.18997373    -0.36700
N74         N  0.43278515  0.98286136  0.25240827    -0.57300
C75         C  0.51469920  0.97890903  0.33733532     0.26900
C76         C  0.45778362  0.97788858  0.33770777     0.26900
C77         C  0.50954835  0.97626390  0.16672018     0.26800
C78         C  0.45355818  0.97716417  0.16688657     0.26800
C79         C  0.56500199  0.99032450  0.28416496     0.35500
C80         C  0.56265424  0.98899059  0.21818433     0.35500
C81         C  0.41654746  0.98902730  0.28610931     0.35500
C82         C  0.41461774  0.98868677  0.21997123     0.35500
C83         C  0.49819143  0.96593071  0.37574457    -0.22000
C84         C  0.46230413  0.96524193  0.37598595    -0.22000
C85         C  0.49242380  0.96371144  0.12836107    -0.22000
C86         C  0.45718126  0.96435880  0.12845747    -0.22000
C87         C  0.60292263  0.00021505  0.27090158    -0.23100
C88         C  0.60144927  0.99936187  0.22900520    -0.23100
C89         C  0.38741362  0.99816203  0.27506451    -0.23100
C90         C  0.38621472  0.99796307  0.23311432    -0.23100
C91         C  0.55275734  0.98547635  0.32533419    -0.18400
C92         C  0.42583621  0.98403069  0.32666616    -0.18400
C93         C  0.42212035  0.98380580  0.17875661    -0.18400
C94         C  0.54796452  0.98309156  0.17779341    -0.18400
H95         H  0.51080939  0.95801504  0.40109788     0.14500
H96         H  0.44201741  0.95678408  0.40167568     0.14500
H97         H  0.50443869  0.95559697  0.10265017     0.14500
H98         H  0.43673086  0.95662877  0.10297190     0.14500
H99         H  0.62877088  0.00694870  0.28945620     0.12800
H100        H  0.62605057  0.00543073  0.20882262     0.12800
H101        H  0.36871579  0.00399263  0.29514652     0.12800
H102        H  0.36649646  0.00365439  0.21446095     0.12800
H103        H  0.49661208  0.00075565  0.28634739     0.26000
H104        H  0.49359170  0.99902274  0.21792982     0.26000
C105        C  0.98139104  0.26766391  0.99134667     0.03000
C106        C  0.97396434  0.28182036  0.45683468    -0.13100
C107        C  0.97040460  0.31604604  0.45802905     0.00500
C108        C  0.97558639  0.33694118  0.99518898    -0.11700
C109        C  0.97662654  0.31821773  0.03138732     0.03000
C110        C  0.97940513  0.28336916  0.02944721    -0.11100
H111        H  0.97514456  0.26926525  0.42763652     0.08600
H112        H  0.97363992  0.36395468  0.99651307     0.06100
H113        H  0.97999484  0.26858310  0.05732181     0.06000
C114        C  0.98429714  0.68629850  0.99820860     0.03000
C115        C  0.98561024  0.66676559  0.03381651    -0.13100
C116        C  0.98535797  0.63042511  0.03136921     0.00500
C117        C  0.98374350  0.61360644  0.99310338    -0.11700
C118        C  0.98371335  0.63213143  0.45616781     0.03000
C119        C  0.98349530  0.66841279  0.45852235    -0.11100
H120        H  0.98604002  0.67947073  0.06342941     0.08600
H121        H  0.98356077  0.58548211  0.99131818     0.06100
H122        H  0.98065253  0.68221107  0.43091212     0.06000
N123        N  0.97593874  0.47317269  0.30683428    -0.36700
N124        N  0.97693171  0.41842737  0.24561616    -0.57300
N125        N  0.97860615  0.47139515  0.18252175    -0.36700
N126        N  0.98277268  0.52866838  0.24369298    -0.57300
C127        C  0.98244869  0.44844671  0.33072109     0.26900
C128        C  0.98387513  0.50560230  0.32969983     0.26900
C129        C  0.98482760  0.44566496  0.15998063     0.26800
C130        C  0.98852497  0.50384551  0.15895178     0.26800
C131        C  0.97044579  0.39575735  0.27920670     0.35500
C132        C  0.97069952  0.39431505  0.21324241     0.35500
C133        C  0.97611725  0.54651077  0.27581557     0.35500
C134        C  0.97800037  0.54574807  0.20980490     0.35500
C135        C  0.99433305  0.46521913  0.36927372    -0.22000
C136        C  0.99522042  0.50122716  0.36862246    -0.22000
C137        C  0.99868149  0.46190258  0.12160301    -0.22000
C138        C  0.00112317  0.49864573  0.12099195    -0.22000
C139        C  0.96063913  0.35718426  0.26816465    -0.23100
C140        C  0.96070652  0.35625211  0.22626639    -0.23100
C141        C  0.96780773  0.57551531  0.26231724    -0.23100
C142        C  0.96898321  0.57502937  0.22046459    -0.23100
C143        C  0.97570095  0.41006229  0.31966806    -0.18400
C144        C  0.97884593  0.53791665  0.31719599    -0.18400
C145        C  0.98307045  0.53633141  0.16938771    -0.18400
C146        C  0.97605273  0.40690209  0.17217434    -0.18400
H147        H  0.00131461  0.45264826  0.39536472     0.14500
H148        H  0.00304179  0.52172514  0.39406266     0.14500
H149        H  0.00586342  0.44848157  0.09644710     0.14500
H150        H  0.01038300  0.51891263  0.09520894     0.14500
H151        H  0.95446435  0.33243010  0.28820004     0.12800
H152        H  0.95458551  0.33067662  0.20756454     0.12800
H153        H  0.96145079  0.59492024  0.28067568     0.12800
H154        H  0.96371484  0.59402846  0.20021731     0.12800
H155        H  0.96232839  0.46609378  0.27840479     0.26000
H156        H  0.96354516  0.46499994  0.21013482     0.26000
O157        O  0.05385870  0.02837023  0.47423482    -0.88500
C158        C  0.02007951  0.94278354  0.06260199     0.87600
Mg159      Mg  0.03785153  0.07404775  0.47700087     1.58100
O160        O  0.96610271  0.90970070  0.47138463    -0.88200
O161        O  0.04765998  0.98084303  0.43358026    -0.75500
C162        C  0.84373292  0.98258002  0.01937125     0.92600
O163        O  0.04296988  0.03795707  0.06987283    -0.75300
O164        O  0.87604717  0.01563376  0.02531602    -0.82900
Mg165      Mg  0.07928602  0.02063739  0.02766228     1.58000
C166        C  0.83963916  0.83767771  0.48534218     0.92500
O167        O  0.12429460  0.00648373  0.49402494    -0.81100
H168        H  0.96177716  0.89842273  0.41148748    -0.06500
C169        C  0.91270682  0.94017573  0.06347404     0.87500
O170        O  0.98418886  0.03806896  0.43423577    -0.75600
O171        O  0.03277271  0.95833322  0.02889207    -0.88400
O172        O  0.87264378  0.83821187  0.49001858    -0.81200
C173        C  0.97728150  0.83238126  0.01285252     0.92600
C174        C  0.12541062  0.97512243  0.48415581     0.92500
Mg175      Mg  0.88783984  0.93437793  0.47482072     1.58000
O176        O  0.84406270  0.95104879  0.00877604    -0.81100
O177        O  0.92353462  0.91584470  0.43267614    -0.75400
O178        O  0.00973573  0.86504123  0.00519532    -0.81200
O179        O  0.12852666  0.08631178  0.02605279    -0.82900
O180        O  0.95645187  0.08793923  0.49545522    -0.81200
C181        C  0.95098074  0.90732078  0.43757411     0.86900
O182        O  0.93443604  0.99620538  0.47295011    -0.88400
O183        O  0.91466458  0.92799488  0.02921724    -0.88500
O184        O  0.92201961  0.97634598  0.06940602    -0.75500
Mg185      Mg  0.02817211  0.92521672  0.47383319     1.58000
O186        O  0.94457925  0.83173495  0.01973554    -0.82900
H187        H  0.06663619  0.03775100  0.41474937    -0.06600
O188        O  0.00218791  0.04639188  0.03038294    -0.88200
H189        H  0.00526467  0.05621134  0.09052445    -0.06500
H190        H  0.92811659  0.00015205  0.41286499    -0.06600
C191        C  0.01644949  0.04768016  0.06447783     0.86900
C192        C  0.05687998  0.01689247  0.43999892     0.87500
C193        C  0.94773090  0.01110376  0.43912119     0.87500
H194        H  0.90371262  0.91982171  0.08911699    -0.06600
O195        O  0.98369556  0.91571255  0.06772061    -0.75600
Mg196      Mg  0.94066929  0.03117571  0.02805633     1.58000
H197        H  0.04016267  0.95312586  0.08851786    -0.06600
C198        C  0.12658372  0.11802542  0.02173692     0.92500
O199        O  0.02135113  0.12261959  0.48015385    -0.82900
C200        C  0.98768186  0.12048418  0.48513037     0.92600
O201        O  0.09343242  0.94167409  0.47825170    -0.82900
Mg202      Mg  0.92933396  0.88102208  0.02526577     1.58200
O203        O  0.09429775  0.11680930  0.01118661    -0.81200
O204        O  0.83865006  0.86975707  0.48012075    -0.82900
C205        C  0.98350837  0.72417465  0.00166206    -0.06300
C206        C  0.95147553  0.72472571  0.48789225    -0.17400
C207        C  0.94803878  0.75895013  0.49220729     0.10900
C208        C  0.97764546  0.79406617  0.01102682    -0.06200
C209        C  0.01275713  0.79404874  0.02229479    -0.17400
C210        C  0.01607953  0.75974583  0.01771653     0.11000
S211        S  0.90301226  0.75589390  0.47239768    -0.32400
S212        S  0.06296379  0.76364432  0.03227378    -0.32400
H213        H  0.06109282  0.73499567  0.00453826     0.29000
H214        H  0.92321401  0.79311878  0.45219785     0.29000
H215        H  0.92675232  0.69777108  0.47477752     0.19600
H216        H  0.03811337  0.82119534  0.03428713     0.19600
C217        C  0.98039784  0.61163037  0.41686069    -0.06300
C218        C  0.94710801  0.57306040  0.41095445    -0.17400
C219        C  0.94475088  0.54959519  0.37736272     0.10900
C220        C  0.97694706  0.56424977  0.34943180    -0.06200
C221        C  0.00937446  0.60353603  0.35416796    -0.17400
C222        C  0.01146314  0.62734177  0.38749839     0.11000
S223        S  0.90036495  0.50078500  0.37227599    -0.32400
S224        S  0.05539384  0.67659570  0.39171914    -0.32400
H225        H  0.05799433  0.67729227  0.43451252     0.29000
H226        H  0.90129299  0.49932733  0.32943363     0.29000
H227        H  0.92303346  0.56085441  0.43317733     0.19600
H228        H  0.03403314  0.61508197  0.33266523     0.19600
C229        C  0.98194712  0.56143959  0.13563727    -0.06300
C230        C  0.01454283  0.60050340  0.13042653    -0.17400
C231        C  0.01607948  0.62415531  0.09715958     0.10900
C232        C  0.98442071  0.60826507  0.06855585    -0.06200
C233        C  0.95166973  0.56939813  0.07416409    -0.17400
C234        C  0.94988186  0.54604120  0.10748896     0.11000
S235        S  0.05966515  0.67327112  0.08991600    -0.32400
S236        S  0.90632458  0.49651603  0.11190353    -0.32400
H237        H  0.90640485  0.49468449  0.15474244     0.29000
H238        H  0.07784833  0.67523428  0.12771640     0.29000
H239        H  0.03921031  0.61190572  0.15190132     0.19600
H240        H  0.92726368  0.55714661  0.05228586     0.19600
C241        C  0.98532276  0.15754392  0.48264922    -0.06300
C242        C  0.01939863  0.19455099  0.99800667    -0.17400
C243        C  0.01857279  0.23019992  0.00127419     0.10900
C244        C  0.98017588  0.22774244  0.49058642    -0.06200
C245        C  0.94808152  0.19246247  0.47429896    -0.17400
C246        C  0.95020173  0.15749541  0.47016810     0.11000
S247        S  0.06229512  0.27340051  0.02218042    -0.32400
S248        S  0.90725495  0.11416982  0.44837138    -0.32400
H249        H  0.92970891  0.10021005  0.42764361     0.29000
H250        H  0.05874366  0.30228632  0.99940413     0.29000
H251        H  0.04553928  0.19399130  0.00911963     0.19600
H252        H  0.92109291  0.19219753  0.46471309     0.19600
C253        C  0.97529101  0.33614858  0.07076942    -0.06300
C254        C  0.94069047  0.33770270  0.08024800    -0.17400
C255        C  0.93926641  0.35842708  0.11459931     0.10900
C256        C  0.97341432  0.37865156  0.13987330    -0.06200
C257        C  0.00738142  0.37561065  0.13151532    -0.17400
C258        C  0.00883321  0.35491937  0.09706575     0.11000
S259        S  0.89368864  0.35941974  0.12347247    -0.32400
S260        S  0.05514177  0.35580402  0.08698587    -0.32400
H261        H  0.05373303  0.35865435  0.04431515     0.29000
H262        H  0.89864727  0.36619938  0.16574301     0.29000
H263        H  0.91487831  0.32336062  0.06016388     0.19600
H264        H  0.03368504  0.39128777  0.15076414     0.19600
C265        C  0.97430573  0.38347481  0.35295566    -0.06300
C266        C  0.93841256  0.36178688  0.37480322    -0.17400
C267        C  0.93571394  0.33787526  0.40799900     0.10900
C268        C  0.96977856  0.33597880  0.41997583    -0.06200
C269        C  0.00527010  0.35648647  0.39721483    -0.17400
C270        C  0.00802805  0.38045574  0.36396783     0.11000
S271        S  0.88822031  0.31077916  0.43405384    -0.32400
S272        S  0.05547048  0.40682868  0.33757807    -0.32400
H273        H  0.05178731  0.43908514  0.32332216     0.29000
H274        H  0.89277710  0.27845042  0.44643499     0.29000
H275        H  0.91243915  0.36382009  0.36606627     0.19600
H276        H  0.03146798  0.35506302  0.40643939     0.19600
C277        C  0.23886398  0.97930885  0.49497118    -0.06300
C278        C  0.20785456  0.94881278  0.47179762    -0.17400
C279        C  0.17152713  0.94786167  0.46533616     0.10900
C280        C  0.16515841  0.97748376  0.48351012    -0.06200
C281        C  0.19547967  0.01021410  0.00379977    -0.17400
C282        C  0.23268814  0.01282789  0.00885920     0.11000
S283        S  0.13537140  0.90873752  0.43263955    -0.32400
S284        S  0.27204946  0.05728869  0.03315153    -0.32400
H285        H  0.30330157  0.06001212  0.00880977     0.29000
H286        H  0.12417961  0.93383446  0.41261746     0.29000
H287        H  0.21219338  0.92571102  0.45819599     0.19600
H288        H  0.19162753  0.03394751  0.01647329     0.19600
C289        C  0.35782992  0.98622906  0.42905398    -0.06300
C290        C  0.34095945  0.95311915  0.40262155    -0.17400
C291        C  0.36208551  0.95179995  0.36862847     0.10900
C292        C  0.40055968  0.98474769  0.36027484    -0.06200
C293        C  0.41686403  0.01842187  0.38592976    -0.17400
C294        C  0.39586506  0.01963618  0.42006235     0.11000
S295        S  0.33890063  0.90689362  0.33791658    -0.32400
S296        S  0.41912033  0.06462022  0.45069265    -0.32400
H297        H  0.38324616  0.06179692  0.46419048     0.29000
H298        H  0.37452253  0.90771196  0.32725887     0.29000
H299        H  0.31174339  0.92746406  0.40943127     0.19600
H300        H  0.44638439  0.04376023  0.37946052     0.19600
C301        C  0.39627549  0.98586873  0.14592698    -0.06300
C302        C  0.41270710  0.02019063  0.12115425    -0.17400
C303        C  0.39139929  0.02308970  0.08800606     0.10900
C304        C  0.35278541  0.99065033  0.07851715    -0.06200
C305        C  0.33551024  0.95705598  0.10440283    -0.17400
C306        C  0.35685816  0.95415891  0.13772721     0.11000
S307        S  0.41531596  0.06888352  0.05866846    -0.32400
S308        S  0.33263783  0.90861294  0.16743778    -0.32400
H309        H  0.36762744  0.90915607  0.18012869     0.29000
H310        H  0.37961075  0.06675127  0.04557109     0.29000
H311        H  0.44268962  0.04480669  0.12747196     0.19600
H312        H  0.30605649  0.93192762  0.09727383     0.19600
C313        C  0.73220659  0.98178608  0.01020435    -0.06300
C314        C  0.73183395  0.94673720  0.02213287    -0.17400
C315        C  0.76760031  0.94635184  0.02773033     0.10900
C316        C  0.80491219  0.98182769  0.02080883    -0.06200
C317        C  0.80496634  0.01712231  0.00994316    -0.17400
C318        C  0.76924357  0.01754007  0.00489297     0.11000
S319        S  0.76333202  0.89986952  0.04442932    -0.32400
S320        S  0.77422615  0.06526406  0.49794295    -0.32400
H321        H  0.73703710  0.05644664  0.51424424     0.29000
H322        H  0.79726798  0.91825238  0.06995201     0.29000
H323        H  0.70338507  0.91948463  0.02731829     0.19600
H324        H  0.83309252  0.04456175  0.00424137     0.19600
C325        C  0.62714731  0.98781361  0.42500505    -0.06300
C326        C  0.61099393  0.95548513  0.39755928    -0.17400
C327        C  0.58738091  0.95417833  0.36433315     0.10900
C328        C  0.58034801  0.98633142  0.35779591    -0.06200
C329        C  0.59822583  0.01952122  0.38410935    -0.17400
C330        C  0.62155462  0.02068270  0.41737476     0.11000
S331        S  0.56567461  0.90985532  0.33272487    -0.32400
S332        S  0.64236613  0.06440239  0.44982886    -0.32400
H333        H  0.67541858  0.06162750  0.46340107     0.29000
H334        H  0.53105096  0.91064779  0.32126721     0.29000
H335        H  0.61474840  0.92997359  0.40347136     0.19600
H336        H  0.59322178  0.04438805  0.37913829     0.19600
C337        C  0.57442596  0.98439100  0.14450571    -0.06300
C338        C  0.57801232  0.95053078  0.13757594    -0.17400
C339        C  0.59832198  0.94827764  0.10331000     0.10900
C340        C  0.61601380  0.98090942  0.07585199    -0.06200
C341        C  0.61327826  0.01515603  0.08350020    -0.17400
C342        C  0.59293823  0.01736261  0.11762157     0.11000
S343        S  0.59874073  0.90231667  0.09522415    -0.32400
S344        S  0.59063001  0.06248994  0.12454727    -0.32400
H345        H  0.58717761  0.06023129  0.16728012     0.29000
H346        H  0.59731832  0.90311606  0.05237598     0.29000
H347        H  0.56346161  0.92509897  0.15809096     0.19600
H348        H  0.62709507  0.04036289  0.06262395     0.19600
C349        C  0.80106448  0.79909869  0.48835981    -0.06300
C350        C  0.76763988  0.79492832  0.46702799    -0.17400
C351        C  0.72945128  0.76124436  0.47230444     0.10900
C352        C  0.72429363  0.72977561  0.49848789    -0.06200
C353        C  0.75659998  0.73404004  0.01933476    -0.17400
C354        C  0.79437666  0.76869445  0.01568171     0.11000
S355        S  0.68837566  0.76152360  0.44635155    -0.32400
S356        S  0.83345365  0.77219834  0.04857163    -0.32400
H357        H  0.84572369  0.81141357  0.06181784     0.29000
H358        H  0.65976462  0.74059255  0.47695096     0.29000
H359        H  0.77101693  0.81874283  0.44694890     0.19600
H360        H  0.75309734  0.70993710  0.03904798     0.19600
C361        C  0.60348324  0.61611460  0.43415494    -0.06300
C362        C  0.56811814  0.61667345  0.42608814    -0.17600
C363        C  0.54450090  0.59681720  0.39202489     0.10900
C364        C  0.55643115  0.57587331  0.36586348    -0.06200
C365        C  0.59216244  0.57594847  0.37337904    -0.17400
C366        C  0.61591802  0.59595810  0.40737162     0.11000
S367        S  0.49909928  0.59793150  0.38203525    -0.32400
S368        S  0.66078445  0.59391217  0.41758761    -0.32400
H369        H  0.65893588  0.57200130  0.38255826     0.29000
H370        H  0.50179857  0.62145416  0.41598207     0.29000
H371        H  0.55907760  0.63258490  0.44667905     0.19600
H372        H  0.60069932  0.55939588  0.35312591     0.19600
C373        C  0.60733629  0.63034924  0.08499745    -0.06300
C374        C  0.62347097  0.61552077  0.11382293    -0.17400
C375        C  0.60081217  0.59295084  0.14744986     0.10900
C376        C  0.56144240  0.58593389  0.15301218    -0.06200
C377        C  0.54642851  0.60299809  0.12556411    -0.17400
C378        C  0.56887620  0.62516788  0.09188492     0.11000
S379        S  0.62311477  0.57219706  0.18051556    -0.32400
S380        S  0.54624809  0.64502063  0.05806381    -0.32400
H381        H  0.58251397  0.67752193  0.04383942     0.29000
H382        H  0.58731120  0.53806713  0.19288092     0.29000
H383        H  0.65284233  0.61919928  0.10860946     0.19600
H384        H  0.51642833  0.59801017  0.12985017     0.19600
C385        C  0.23187164  0.23482763  0.01508157    -0.06300
C386        C  0.19706953  0.23020961  0.03365218    -0.17400
C387        C  0.16312498  0.19220598  0.03905825     0.10900
C388        C  0.16354538  0.15778609  0.02500689    -0.06200
C389        C  0.19998034  0.16175645  0.50847091    -0.17400
C390        C  0.23429782  0.19942386  0.50290168     0.11000
S391        S  0.12053615  0.18970666  0.06452126    -0.32400
S392        S  0.27828119  0.20097550  0.48210792    -0.32400
H393        H  0.30653731  0.23546312  0.50326473     0.29000
H394        H  0.10740105  0.15208041  0.08272518     0.29000
H395        H  0.19633817  0.25649849  0.04393341     0.19600
H396        H  0.20067117  0.13529143  0.49878850     0.19600
C397        C  0.37544855  0.39789801  0.35946187    -0.06300
C398        C  0.35923185  0.41329704  0.38738459    -0.17400
C399        C  0.33686387  0.39075135  0.42088438     0.10900
C400        C  0.33095280  0.35191554  0.42732977    -0.06200
C401        C  0.34498423  0.33546385  0.39801781    -0.17400
C402        C  0.36741729  0.35808918  0.36430123     0.11000
S403        S  0.31748123  0.41365538  0.45487881    -0.32400
S404        S  0.38624903  0.33490624  0.32995896    -0.32400
H405        H  0.41921029  0.37015360  0.31478346     0.29000
H406        H  0.28439837  0.37747586  0.46843655     0.29000
H407        H  0.36485174  0.44357908  0.38347841     0.19600
H408        H  0.34060569  0.30574367  0.40276830     0.19600
C409        C  0.37940686  0.40752818  0.14735274    -0.06300
C410        C  0.37456578  0.36919263  0.14348352    -0.17400
C411        C  0.35557798  0.34535439  0.10937665     0.10900
C412        C  0.34016018  0.35979221  0.07887183    -0.06200
C413        C  0.34432620  0.39784809  0.08331949    -0.17400
C414        C  0.36356339  0.42174051  0.11724926     0.11000
S415        S  0.35437678  0.29817041  0.10553239    -0.32400
S416        S  0.36781380  0.47038187  0.11993234    -0.32400
H417        H  0.36901247  0.47314116  0.16273408     0.29000
H418        H  0.35812015  0.29877463  0.06282212     0.29000
H419        H  0.38734146  0.35859658  0.16632151     0.19600
H420        H  0.33235752  0.40898243  0.06016538     0.19600
C421        C  0.26867609  0.27475454  0.50868994     0.03000
C422        C  0.28897787  0.29564203  0.54391655    -0.13100
C423        C  0.32361751  0.33337711  0.54094427     0.00500
C424        C  0.33353703  0.35306527  0.00338782    -0.11700
C425        C  0.31400797  0.33181404  0.96795690     0.03000
C426        C  0.28092177  0.29266338  0.97144718    -0.11100
H427        H  0.27800166  0.28229232  0.57366922     0.08600
H428        H  0.35974161  0.38281612  0.00083945     0.06100
H429        H  0.26595716  0.27574431  0.94424179     0.06000
C430        C  0.68507694  0.69206023  0.50301359     0.03000
C431        C  0.66798711  0.67743847  0.54181085    -0.13100
C432        C  0.62975414  0.64284938  0.54513554     0.00500
C433        C  0.60822988  0.62358235  0.00984901    -0.11700
C434        C  0.62597843  0.63650617  0.97151072     0.03000
C435        C  0.66379171  0.67107734  0.96831561    -0.11100
H436        H  0.68372952  0.69351111  0.56911500     0.08600
H437        H  0.57887200  0.59679348  0.01217991     0.06100
H438        H  0.67730350  0.68129577  0.93849862     0.06000
N439        N  0.47413902  0.48984623  0.69456942    -0.36700
N440        N  0.52709426  0.53954252  0.75818416    -0.57300
N441        N  0.46849168  0.48538860  0.81860782    -0.36700
N442        N  0.41769578  0.43337771  0.75497632    -0.57300
C443        C  0.50729766  0.51441542  0.67251635     0.26900
C444        C  0.45058173  0.45776800  0.67087502     0.26900
C445        C  0.50058403  0.50821936  0.84258330     0.26800
C446        C  0.44255286  0.45299311  0.84087869     0.26800
C447        C  0.54572354  0.56432977  0.72634148     0.35500
C448        C  0.54329340  0.56145042  0.79224472     0.35500
C449        C  0.39588077  0.41749906  0.72079967     0.35500
C450        C  0.39246351  0.41565889  0.78670523     0.35500
C451        C  0.50465477  0.49786311  0.63432423    -0.22000
C452        C  0.46893236  0.46206768  0.63331227    -0.22000
C453        C  0.49489060  0.49026232  0.88058870    -0.22000
C454        C  0.45826734  0.45544374  0.87951735    -0.22000
C455        C  0.57428655  0.60199836  0.74017091    -0.23100
C456        C  0.57278499  0.60017495  0.78204265    -0.23100
C457        C  0.35665070  0.38920602  0.73081568    -0.23100
C458        C  0.35450366  0.38803244  0.77269615    -0.23100
C459        C  0.53883220  0.55243481  0.68507267    -0.18400
C460        C  0.41150716  0.42641188  0.68080598    -0.18400
C461        C  0.40417485  0.42231542  0.82804532    -0.18400
C462        C  0.53328365  0.54644243  0.83239958    -0.18400
H463        H  0.52610938  0.51042464  0.60962359     0.14500
H464        H  0.45745101  0.44181077  0.60753388     0.14500
H465        H  0.51480822  0.50141659  0.90665582     0.14500
H466        H  0.44461781  0.43449146  0.90449609     0.14500
H467        H  0.59434953  0.62788790  0.72201460     0.12800
H468        H  0.59141975  0.62449481  0.80262304     0.12800
H469        H  0.33225466  0.37102124  0.71012345     0.12800
H470        H  0.32822270  0.36875219  0.79074868     0.12800
H471        H  0.46564341  0.49685943  0.72197459     0.26000
H472        H  0.46258225  0.49405026  0.79069202     0.26000
C473        C  0.69395042  0.97993637  0.50595950     0.03000
C474        C  0.67922016  0.98405840  0.96755493    -0.13100
C475        C  0.64384568  0.98589507  0.96480227     0.00500
C476        C  0.62165172  0.97999454  0.50018173    -0.11700
C477        C  0.63574141  0.97649035  0.53839931     0.03000
C478        C  0.67178861  0.97631287  0.54119882    -0.11100
H479        H  0.69574828  0.98591071  0.94015597     0.08600
H480        H  0.59377833  0.98027416  0.49815351     0.06100
H481        H  0.68311951  0.97438847  0.57087767     0.06000
C482        C  0.27717654  0.97956693  0.49922308     0.03000
C483        C  0.29326532  0.97924949  0.53778523    -0.13100
C484        C  0.33093462  0.98206040  0.54064310     0.00500
C485        C  0.35187212  0.98430228  0.50488051    -0.11700
C486        C  0.33547391  0.98741221  0.96459646     0.03000
C487        C  0.29769209  0.98387127  0.96243116    -0.11100
H488        H  0.27700923  0.97767577  0.56530462     0.08600
H489        H  0.38078351  0.98617762  0.50690586     0.06100
H490        H  0.28445916  0.98247285  0.93284545     0.06000
N491        N  0.48823961  0.98223694  0.81469184    -0.36700
N492        N  0.53794213  0.97754995  0.75184541    -0.57300
N493        N  0.48271567  0.97767353  0.69053037    -0.36700
N494        N  0.43063406  0.97761147  0.75346308    -0.57300
C495        C  0.51325264  0.97510913  0.83744505     0.26900
C496        C  0.45628268  0.97389437  0.83833439     0.26900
C497        C  0.50629713  0.96938628  0.66694037     0.26800
C498        C  0.45053142  0.97063562  0.66775673     0.26800
C499        C  0.56308152  0.98602174  0.78384237     0.35500
C500        C  0.55979699  0.98261561  0.71792713     0.35500
C501        C  0.41504427  0.98484102  0.78699056     0.35500
C502        C  0.41266235  0.98357043  0.72101990     0.35500
C503        C  0.49704973  0.96224954  0.87601434    -0.22000
C504        C  0.46110420  0.96148271  0.87658147    -0.22000
C505        C  0.48897375  0.95710689  0.62863437    -0.22000
C506        C  0.45386304  0.95798667  0.62912990    -0.22000
C507        C  0.60095540  0.99603247  0.77026164    -0.23100
C508        C  0.59884795  0.99374634  0.72842297    -0.23100
C509        C  0.38654307  0.99481661  0.77587589    -0.23100
C510        C  0.38503287  0.99399925  0.73397278    -0.23100
C511        C  0.55139153  0.98214725  0.82515554    -0.18400
C512        C  0.42436384  0.98005707  0.82747629    -0.18400
C513        C  0.41947899  0.97766064  0.67999468    -0.18400
C514        C  0.54471583  0.97606828  0.67766010    -0.18400
H515        H  0.50995122  0.95453252  0.90126363     0.14500
H516        H  0.44100231  0.95317825  0.90241559     0.14500
H517        H  0.50082360  0.94913089  0.60267889     0.14500
H518        H  0.43338708  0.95064583  0.60372863     0.14500
H519        H  0.62719785  0.00374064  0.78858329     0.12800
H520        H  0.62326241  0.99960002  0.70806148     0.12800
H521        H  0.36850277  0.00163638  0.79587491     0.12800
H522        H  0.36566074  0.00009995  0.71521789     0.12800
H523        H  0.49488049  0.99674815  0.78665576     0.26000
H524        H  0.49074626  0.99214324  0.71853239     0.26000
C525        C  0.97638654  0.26392590  0.49310278     0.03000
C526        C  0.98072850  0.28696455  0.95540071    -0.13100
C527        C  0.97772093  0.32148556  0.95727881     0.00500
C528        C  0.96923469  0.33255730  0.49563858    -0.11700
C529        C  0.97211842  0.31544304  0.53228532     0.03000
C530        C  0.97549961  0.28081580  0.53094526    -0.11100
H531        H  0.98242767  0.27505522  0.92599534     0.08600
H532        H  0.96712941  0.35949673  0.49633068     0.06100
H533        H  0.97751457  0.26718294  0.55906404     0.06000
C534        C  0.98722339  0.68693323  0.49667241     0.03000
C535        C  0.99029359  0.66845326  0.53230439    -0.13100
C536        C  0.99005120  0.63213576  0.53010591     0.00500
C537        C  0.98685978  0.61428532  0.49208664    -0.11700
C538        C  0.98221513  0.63243333  0.95714126     0.03000
C539        C  0.98219607  0.66882056  0.95979631    -0.11100
H540        H  0.99177764  0.68179922  0.56182051     0.08600
H541        H  0.98659509  0.58610987  0.49047777     0.06100
H542        H  0.98047293  0.68338147  0.93224336     0.06000
N543        N  0.97947241  0.47712250  0.80655999    -0.36700
N544        N  0.98132757  0.42237474  0.74545617    -0.57300
N545        N  0.98175612  0.47429062  0.68256813    -0.36700
N546        N  0.98476786  0.53146678  0.74364710    -0.57300
C547        C  0.98773318  0.45354282  0.83024071     0.26900
C548        C  0.98686337  0.50949355  0.82921763     0.26900
C549        C  0.98767721  0.44836573  0.66000394     0.26800
C550        C  0.99215866  0.50689980  0.65912249     0.26800
C551        C  0.97483832  0.40012898  0.77936597     0.35500
C552        C  0.97347748  0.39743771  0.71342027     0.35500
C553        C  0.97653043  0.54846870  0.77542825     0.35500
C554        C  0.97985202  0.54804358  0.70948961     0.35500
C555        C  0.00034274  0.47104031  0.86842346    -0.22000
C556        C  0.99978108  0.50632006  0.86776875    -0.22000
C557        C  0.00186056  0.46461629  0.62173097    -0.22000
C558        C  0.00486443  0.50162955  0.62122114    -0.22000
C559        C  0.96349777  0.36101251  0.76887579    -0.23100
C560        C  0.96247303  0.35927520  0.72697836    -0.23100
C561        C  0.96679425  0.57631110  0.76144933    -0.23100
C562        C  0.96901323  0.57613458  0.71960236    -0.23100
C563        C  0.98123839  0.41520504  0.81956971    -0.18400
C564        C  0.97973733  0.54048162  0.81688162    -0.18400
C565        C  0.98650204  0.53930113  0.66938151    -0.18400
C566        C  0.97817249  0.40939270  0.67216526    -0.18400
H567        H  0.00854089  0.45930362  0.89433395     0.14500
H568        H  0.00757180  0.52706100  0.89298352     0.14500
H569        H  0.00885142  0.45100974  0.59660248     0.14500
H570        H  0.01435045  0.52193448  0.59545904     0.14500
H571        H  0.95680718  0.33636239  0.78927788     0.12800
H572        H  0.95488940  0.33308626  0.70862719     0.12800
H573        H  0.95909428  0.59491260  0.77948356     0.12800
H574        H  0.96325794  0.59454141  0.69897936     0.12800
H575        H  0.96485086  0.46906419  0.77861444     0.26000
H576        H  0.96642684  0.46789154  0.71005061     0.26000
O577        O  0.05206478  0.02832059  0.97365116    -0.88500
C578        C  0.02155021  0.94261321  0.56287655     0.87600
Mg579      Mg  0.03687114  0.07448715  0.97638247     1.58100
O580        O  0.96424028  0.90961442  0.97139165    -0.88200
O581        O  0.04534064  0.98035547  0.93327821    -0.75500
C582        C  0.84417841  0.98131054  0.51892253     0.92600
O583        O  0.04417711  0.03763914  0.57028631    -0.75300
O584        O  0.87643447  0.01414150  0.52592081    -0.82900
Mg585      Mg  0.08092218  0.02065235  0.52830322     1.58000
C586        C  0.83820082  0.83856673  0.98607533     0.92500
O587        O  0.12222297  0.00641483  0.99285963    -0.81100
H588        H  0.95973260  0.89875413  0.91139637    -0.06500
C589        C  0.91310158  0.93873925  0.56323856     0.87500
O590        O  0.98276396  0.03890616  0.93392211    -0.75600
O591        O  0.03467804  0.95822317  0.52927025    -0.88400
O592        O  0.87116058  0.83895239  0.99026201    -0.81200
C593        C  0.97935586  0.83242894  0.51220472     0.92600
C594        C  0.12346552  0.97496504  0.98380376     0.92500
Mg595      Mg  0.88666607  0.93529689  0.97548880     1.58000
O596        O  0.84478301  0.95021890  0.50713644    -0.81100
O597        O  0.92194968  0.91658884  0.93298206    -0.75400
O598        O  0.01172932  0.86516130  0.50460430    -0.81200
O599        O  0.12964595  0.08645432  0.52647452    -0.82900
O600        O  0.95622302  0.08958432  0.99469339    -0.81200
C601        C  0.94912519  0.90763539  0.93764764     0.86900
O602        O  0.93341158  0.99716764  0.97303605    -0.88400
O603        O  0.91548736  0.92698639  0.52891298    -0.88500
O604        O  0.92248090  0.97485624  0.56954083    -0.75500
Mg605      Mg  0.02619680  0.92496316  0.97383979     1.58000
O606        O  0.94658947  0.83158716  0.51929980    -0.82900
H607        H  0.06389525  0.03702880  0.91394660    -0.06600
O608        O  0.00291735  0.04524220  0.53071793    -0.88200
H609        H  0.00591512  0.05523762  0.59082207    -0.06500
H610        H  0.92638930  0.00120863  0.91310297    -0.06600
C611        C  0.01727536  0.04683092  0.56482861     0.86900
C612        C  0.05455754  0.01645326  0.93942241     0.87500
C613        C  0.94632281  0.01203803  0.93912343     0.87500
H614        H  0.90378634  0.91807719  0.58863663    -0.06600
O615        O  0.98509068  0.91555222  0.56762637    -0.75600
Mg616      Mg  0.94123075  0.02974130  0.52839999     1.58000
H617        H  0.04131407  0.95292924  0.58904591    -0.06600
C618        C  0.12746342  0.11805709  0.52222208     0.92500
O619        O  0.02126349  0.12336023  0.97970423    -0.82900
C620        C  0.98791106  0.12186673  0.98456073     0.92600
O621        O  0.09150776  0.94137332  0.97844267    -0.82900
Mg622      Mg  0.93086653  0.88056169  0.52498729     1.58200
O623        O  0.09491811  0.11660278  0.51225731    -0.81200
O624        O  0.83733841  0.87074179  0.98117833    -0.82900
C625        C  0.98630138  0.72476391  0.49995693    -0.06300
C626        C  0.94838682  0.72396948  0.99057050    -0.17400
C627        C  0.94517225  0.75833838  0.99461924     0.10900
C628        C  0.97990235  0.79426579  0.50993699    -0.06200
C629        C  0.01477159  0.79416397  0.52195336    -0.17400
C630        C  0.01840576  0.76010196  0.51697486     0.11000
S631        S  0.89957691  0.75485005  0.97604457    -0.32400
S632        S  0.06523687  0.76411428  0.53195993    -0.32400
H633        H  0.06430080  0.73676890  0.50304542     0.29000
H634        H  0.91930895  0.79110502  0.95409623     0.29000
H635        H  0.92327743  0.69677307  0.97831290     0.19600
H636        H  0.03974059  0.82110639  0.53477253     0.19600
C637        C  0.97937174  0.61230439  0.91757646    -0.06300
C638        C  0.94744484  0.57283676  0.91227111    -0.17400
C639        C  0.94555961  0.54982356  0.87848627     0.10900
C640        C  0.97666710  0.56609463  0.84922370    -0.06200
C641        C  0.00755068  0.60625067  0.85327179    -0.17400
C642        C  0.00937576  0.62941367  0.88713751     0.11000
S643        S  0.90338630  0.49935237  0.87521620    -0.32400
S644        S  0.05205621  0.67948337  0.89092135    -0.32400
H645        H  0.05670444  0.67883336  0.93341456     0.29000
H646        H  0.90299224  0.49689384  0.83239732     0.29000
H647        H  0.92413352  0.55948686  0.93525060     0.19600
H648        H  0.03152783  0.61895060  0.83096783     0.19600
C649        C  0.98593736  0.56445798  0.63552908    -0.06300
C650        C  0.01954848  0.60268847  0.62924814    -0.17400
C651        C  0.02160622  0.62592588  0.59536180     0.10900
C652        C  0.98933557  0.61045098  0.56748616    -0.06200
C653        C  0.95565597  0.57246148  0.57422218    -0.17400
C654        C  0.95344394  0.54951577  0.60800576     0.11000
S655        S  0.06625256  0.67391772  0.58653712    -0.32400
S656        S  0.90881835  0.50096200  0.61373090    -0.32400
H657        H  0.90941060  0.50014379  0.65659469     0.29000
H658        H  0.08733152  0.67365612  0.62144459     0.29000
H659        H  0.04448153  0.61368062  0.65035533     0.19600
H660        H  0.93081782  0.56058027  0.55286679     0.19600
C661        C  0.98669889  0.15947560  0.98193400    -0.06300
C662        C  0.01770636  0.19321038  0.49812910    -0.17400
C663        C  0.01556104  0.22814034  0.50214507     0.10900
C664        C  0.98414639  0.23102878  0.98850286    -0.06200
C665        C  0.95177132  0.19637938  0.97160075    -0.17400
C666        C  0.95267221  0.16073204  0.96804347     0.11000
S667        S  0.05892858  0.27206180  0.52240414    -0.32400
S668        S  0.90983157  0.11834481  0.94493057    -0.32400
H669        H  0.93212551  0.10349329  0.92546075     0.29000
H670        H  0.05432019  0.30006268  0.49917752     0.29000
H671        H  0.04462161  0.19365241  0.50831125     0.19600
H672        H  0.92554303  0.19713972  0.96113947     0.19600
C673        C  0.97236905  0.33507291  0.57133342    -0.06300
C674        C  0.93949521  0.33989775  0.58026406    -0.17400
C675        C  0.93974745  0.36205927  0.61417768     0.10900
C676        C  0.97378736  0.38032968  0.63982465    -0.06200
C677        C  0.00601104  0.37424480  0.63196261    -0.17400
C678        C  0.00591321  0.35233702  0.59779196     0.11000
S679        S  0.89638554  0.36723665  0.62219261    -0.32400
S680        S  0.05072194  0.35029717  0.58794628    -0.32400
H681        H  0.04996901  0.35440559  0.54536762     0.29000
H682        H  0.90076344  0.37283724  0.66465779     0.29000
H683        H  0.91369234  0.32691150  0.56011345     0.19600
H684        H  0.03233948  0.38854087  0.65134288     0.19600
C685        C  0.98049170  0.38918471  0.85304305    -0.06300
C686        C  0.94489228  0.36747064  0.87529279    -0.17400
C687        C  0.94269154  0.34363921  0.90831388     0.10900
C688        C  0.97696020  0.34183924  0.91966452    -0.06200
C689        C  0.01223493  0.36252874  0.89659744    -0.17400
C690        C  0.01448887  0.38652539  0.86358656     0.11000
S691        S  0.89550811  0.31644667  0.93493564    -0.32400
S692        S  0.06158645  0.41357925  0.83677255    -0.32400
H693        H  0.05846173  0.44725890  0.82679852     0.29000
H694        H  0.90007848  0.28395536  0.94663659     0.29000
H695        H  0.91873363  0.36932567  0.86693053     0.19600
H696        H  0.03860129  0.36122631  0.90538570     0.19600
C697        C  0.23832252  0.98166829  0.99434297    -0.06300
C698        C  0.20684529  0.94951601  0.97317962    -0.17400
C699        C  0.16988619  0.94739562  0.96700906     0.10900
C700        C  0.16341661  0.97766057  0.98332958    -0.06200
C701        C  0.19686108  0.00856357  0.50582623    -0.17400
C702        C  0.23355003  0.01012828  0.51115092     0.11000
S703        S  0.13302612  0.90586874  0.93713995    -0.32400
S704        S  0.27264415  0.05277905  0.53806448    -0.32400
H705        H  0.30444136  0.05597331  0.51431807     0.29000
H706        H  0.12124284  0.92933931  0.91482170     0.29000
H707        H  0.21130742  0.92601457  0.96089445     0.19600
H708        H  0.19304428  0.03180699  0.51985374     0.19600
C709        C  0.35655293  0.98761647  0.92707718    -0.06300
C710        C  0.34043195  0.95230498  0.90388266    -0.17400
C711        C  0.36173030  0.94890455  0.87116751     0.10900
C712        C  0.39959730  0.98188769  0.86088855    -0.06200
C713        C  0.41507122  0.01763593  0.88317634    -0.17400
C714        C  0.39387510  0.02096720  0.91595678     0.11000
S715        S  0.33944567  0.90153848  0.84456917    -0.32400
S716        S  0.41600979  0.06846292  0.94225331    -0.32400
H717        H  0.37967511  0.06495276  0.95516171     0.29000
H718        H  0.37541965  0.90383062  0.83251972     0.29000
H719        H  0.31181673  0.92665020  0.91242573     0.19600
H720        H  0.44397389  0.04306788  0.87497677     0.19600
C721        C  0.39313051  0.97906283  0.64768757    -0.06300
C722        C  0.40697311  0.01507017  0.62619658    -0.17400
C723        C  0.38556402  0.01758004  0.59301333     0.10900
C724        C  0.34953902  0.98325505  0.58054046    -0.06200
C725        C  0.33458004  0.94774200  0.60329156    -0.17400
C726        C  0.35612282  0.94512597  0.63649382     0.11000
S727        S  0.40636345  0.06508790  0.56694789    -0.32400
S728        S  0.33542876  0.89729528  0.66203733    -0.32400
H729        H  0.37141584  0.90198560  0.67754752     0.29000
H730        H  0.36947107  0.05973937  0.55325766     0.29000
H731        H  0.43517406  0.04122033  0.63486263     0.19600
H732        H  0.30711044  0.92123524  0.59368869     0.19600
C733        C  0.73263663  0.98110225  0.51025326    -0.06300
C734        C  0.73202683  0.94523261  0.51874944    -0.17400
C735        C  0.76760381  0.94441170  0.52408946     0.10900
C736        C  0.80517558  0.98042007  0.52061842    -0.06200
C737        C  0.80544609  0.01651173  0.51333485    -0.17400
C738        C  0.76984176  0.01727003  0.50818950     0.11000
S739        S  0.76258627  0.89644707  0.53567053    -0.32400
S740        S  0.77297044  0.06458595  0.99130540    -0.32400
H741        H  0.73870230  0.05817814  0.01270423     0.29000
H742        H  0.79463855  0.91204534  0.56362626     0.29000
H743        H  0.70345764  0.91755215  0.52130795     0.19600
H744        H  0.83371940  0.04440498  0.51022245     0.19600
C745        C  0.62742251  0.98929876  0.92508214    -0.06300
C746        C  0.61348427  0.95731043  0.89736291    -0.17400
C747        C  0.58939354  0.95449474  0.86403191     0.10900
C748        C  0.57978011  0.98488060  0.85757577    -0.06200
C749        C  0.59577632  0.01803863  0.88393548    -0.17400
C750        C  0.61957004  0.02069757  0.91732875     0.11000
S751        S  0.57018177  0.91038506  0.83234976    -0.32400
S752        S  0.63828974  0.06448375  0.94948991    -0.32400
H753        H  0.67237668  0.06374673  0.96333197     0.29000
H754        H  0.53360611  0.90792584  0.82251239     0.29000
H755        H  0.61915877  0.93301194  0.90324251     0.19600
H756        H  0.58892072  0.04166126  0.87888403     0.19600
C757        C  0.57112349  0.97767576  0.64407811    -0.06300
C758        C  0.57476574  0.94395213  0.63633155    -0.17400
C759        C  0.59574367  0.94257494  0.60213448     0.10900
C760        C  0.61379974  0.97584828  0.57543848    -0.06200
C761        C  0.61068968  0.00976795  0.58376452    -0.17400
C762        C  0.58994175  0.01119210  0.61792110     0.11000
S763        S  0.59690361  0.89707103  0.59341649    -0.32400
S764        S  0.58772811  0.05621038  0.62604680    -0.32400
H765        H  0.58604064  0.05388551  0.66886523     0.29000
H766        H  0.59802394  0.89938434  0.55058686     0.29000
H767        H  0.56002197  0.91809604  0.65629093     0.19600
H768        H  0.62472392  0.03544560  0.56349021     0.19600
C769        C  0.79959877  0.80004432  0.98914761    -0.06300
C770        C  0.76589794  0.79630294  0.96872964    -0.17400
C771        C  0.72778100  0.76258639  0.97415327     0.10900
C772        C  0.72308025  0.73054313  0.99898178    -0.06200
C773        C  0.75763452  0.73376300  0.51969782    -0.17400
C774        C  0.79554869  0.76817681  0.51565357     0.11000
S775        S  0.68600415  0.76345623  0.95064413    -0.32400
S776        S  0.83463858  0.77173112  0.54854563    -0.32400
H777        H  0.84690598  0.81098264  0.56165326     0.29000
H778        H  0.65862245  0.74258427  0.98224284     0.29000
H779        H  0.76896690  0.82051365  0.94947696     0.19600
H780        H  0.75398439  0.71006497  0.54011266     0.19600
C781        C  0.60379431  0.61455196  0.93475208    -0.06300
C782        C  0.56713266  0.61236378  0.92636199    -0.17600
C783        C  0.54445481  0.59176641  0.89222835     0.10900
C784        C  0.55832194  0.57229047  0.86624467    -0.06200
C785        C  0.59522781  0.57492970  0.87414379    -0.17400
C786        C  0.61802090  0.59564553  0.90828015     0.11000
S787        S  0.49781475  0.59075572  0.88374768    -0.32400
S788        S  0.66391543  0.59532973  0.91724765    -0.32400
H789        H  0.66211251  0.59568340  0.96008202     0.29000
H790        H  0.49852441  0.58889918  0.84093940     0.29000
H791        H  0.55624834  0.62704666  0.94648215     0.19600
H792        H  0.60562784  0.55963130  0.85429793     0.19600
C793        C  0.61019387  0.62702071  0.58519795    -0.06300
C794        C  0.62654551  0.61053140  0.61181281    -0.17400
C795        C  0.60462474  0.58702072  0.64534443     0.10900
C796        C  0.56573730  0.58050450  0.65299245    -0.06200
C797        C  0.55051955  0.59906866  0.62782976    -0.17400
C798        C  0.57227777  0.62232343  0.59431418     0.11000
S799        S  0.62725412  0.56478147  0.67579866    -0.32400
S800        S  0.54942753  0.64418405  0.56360494    -0.32400
H801        H  0.58542121  0.67613242  0.54818138     0.29000
H802        H  0.59157693  0.53092787  0.68888768     0.29000
H803        H  0.65549897  0.61383929  0.60494097     0.19600
H804        H  0.52092337  0.59453966  0.63381808     0.19600
C805        C  0.23323209  0.23430346  0.51318675    -0.06300
C806        C  0.19839374  0.23060256  0.53064749    -0.17400
C807        C  0.16420244  0.19293023  0.53675596     0.10900
C808        C  0.16448280  0.15789259  0.52462741    -0.06200
C809        C  0.19901850  0.16242712  0.00793219    -0.17400
C810        C  0.23315425  0.20041036  0.00315611     0.11000
S811        S  0.12159583  0.19173163  0.56071951    -0.32400
S812        S  0.27731891  0.20299324  0.98155437    -0.32400
H813        H  0.30516716  0.23653497  0.00422019     0.29000
H814        H  0.10869011  0.15522360  0.58127233     0.29000
H815        H  0.19791820  0.25734381  0.53970831     0.19600
H816        H  0.19980513  0.13637425  0.99695042     0.19600
C817        C  0.37577856  0.39545871  0.85988499    -0.06300
C818        C  0.35679915  0.41048021  0.88465663    -0.17400
C819        C  0.33356353  0.38867362  0.91816762     0.10900
C820        C  0.32959439  0.35113125  0.92778228    -0.06200
C821        C  0.34646604  0.33496490  0.90151289    -0.17400
C822        C  0.36977243  0.35683673  0.86791752     0.11000
S823        S  0.31051003  0.41075506  0.94813426    -0.32400
S824        S  0.39258207  0.33467257  0.83776808    -0.32400
H825        H  0.42789846  0.37063691  0.82819560     0.29000
H826        H  0.27817779  0.37419958  0.96204292     0.29000
H827        H  0.36094774  0.43988911  0.87835977     0.19600
H828        H  0.34365875  0.30627248  0.90872408     0.19600
C829        C  0.38575407  0.40133134  0.64691014    -0.06300
C830        C  0.38022397  0.36286700  0.64151464    -0.17400
C831        C  0.36026814  0.33996127  0.60717428     0.10900
C832        C  0.34497099  0.35568499  0.57791771    -0.06200
C833        C  0.34996001  0.39390371  0.58386525    -0.17400
C834        C  0.36984579  0.41669794  0.61813906     0.11000
S835        S  0.35725252  0.29205737  0.60153477    -0.32400
S836        S  0.37460999  0.46541181  0.62318415    -0.32400
H837        H  0.37417076  0.46569638  0.66607863     0.29000
H838        H  0.36035642  0.29347753  0.55874407     0.29000
H839        H  0.39288016  0.35131890  0.66344686     0.19600
H840        H  0.33796225  0.40594762  0.56172472     0.19600
loop_ 
_geom_bond_atom_site_label_1 
_geom_bond_atom_site_label_2 
_geom_bond_distance 
_geom_bond_site_symmetry_2 
_ccdc_geom_bond_type 
C1            C2   1.400       .  A
C1          C426   1.410   1_554  A
C1          C385   1.478       .  S
C2            C3   1.399       .  A
C2            H7   1.084       .  S
C3          C424   1.400       .  A
C3          C412   1.476       .  S
C4            C5   1.401       .  A
C4          C423   1.398       .  A
C4            H8   1.085       .  S
C5            C6   1.407       .  A
C5          C400   1.482       .  S
C6          C421   1.409       .  A
C6            H9   1.083       .  S
C10          C11   1.410       .  A
C10         C435   1.403   1_554  A
C10         C772   1.482   1_554  S
C11          C12   1.406       .  A
C11          H16   1.083       .  S
C12         C433   1.401       .  A
C12         C373   1.482       .  S
C13          C14   1.398       .  A
C13         C432   1.402       .  A
C13          H17   1.084       .  S
C14          C15   1.397       .  A
C14         C361   1.473       .  S
C15         C430   1.403       .  A
C15          H18   1.084       .  S
N19          C24   1.352       .  A
N19          C23   1.355       .  A
N19          H51   1.039       .  S
N20          C27   1.351       .  A
N20          C28   1.349       .  A
N21          C26   1.354       .  A
N21          C25   1.351       .  A
N21          H52   1.039       .  S
N22          C29   1.347       .  A
N22          C30   1.350       .  A
C23          C31   1.386       .  A
C23          C39   1.415       .  A
C24          C40   1.415       .  A
C24          C32   1.388       .  A
C25          C33   1.388       .  A
C25          C42   1.414       .  A
C26          C41   1.415       .  A
C26          C34   1.386       .  A
C27          C39   1.410       .  A
C27          C35   1.385       .  A
C28          C42   1.410       .  A
C28          C36   1.387       .  A
C29          C37   1.387       .  A
C29          C40   1.409       .  A
C30          C38   1.385       .  A
C30          C41   1.408       .  A
C31          C32   1.374       .  A
C31          H43   1.082       .  S
C32          H44   1.082       .  S
C33          C34   1.374       .  A
C33          H45   1.082       .  S
C34          H46   1.082       .  S
C35          C36   1.375       .  A
C35          H47   1.082       .  S
C36          H48   1.082       .  S
C37          C38   1.375       .  A
C37          H49   1.082       .  S
C38          H50   1.082       .  S
C39         C376   1.490       .  S
C40         C409   1.480       .  S
C41         C397   1.488       .  S
C42         C364   1.479       .  S
C53          C58   1.401       .  A
C53         C474   1.409   1_554  A
C53         C313   1.476       .  S
C54          C55   1.408       .  A
C54         C473   1.411       .  A
C54          H59   1.083       .  S
C55         C476   1.401       .  A
C55         C325   1.484       .  S
C56          C57   1.398       .  A
C56         C475   1.401   1_554  A
C56          H60   1.085   1_554  S
C57          C58   1.398       .  A
C57         C340   1.472       .  S
C58          H61   1.084       .  S
C62          C63   1.414   1_556  A
C62         C487   1.402       .  A
C62         C697   1.485       .  S
C63          C64   1.410       .  A
C63          H68   1.083       .  S
C64          C65   1.402       .  A
C64         C304   1.488       .  S
C65         C486   1.399   1_554  A
C65          H69   1.084       .  S
C66          C67   1.397       .  A
C66         C485   1.400       .  A
C66         C289   1.474       .  S
C67         C482   1.401       .  A
C67          H70   1.084       .  S
N71          C76   1.352       .  A
N71          C75   1.356       .  A
N71         H103   1.037   1_565  S
N72          C79   1.352       .  A
N72          C80   1.349       .  A
N73          C78   1.356       .  A
N73          C77   1.352       .  A
N73         H104   1.037       .  S
N74          C81   1.350       .  A
N74          C82   1.354       .  A
C75          C83   1.386       .  A
C75          C91   1.416       .  A
C76          C92   1.417       .  A
C76          C84   1.389       .  A
C77          C85   1.388       .  A
C77          C94   1.417       .  A
C78          C93   1.417       .  A
C78          C86   1.386       .  A
C79          C91   1.411       .  A
C79          C87   1.384   1_565  A
C80          C94   1.412       .  A
C80          C88   1.388       .  A
C81          C89   1.387       .  A
C81          C92   1.415       .  A
C82          C90   1.385       .  A
C82          C93   1.414       .  A
C83          C84   1.374       .  A
C83          H95   1.082       .  S
C84          H96   1.082       .  S
C85          C86   1.375       .  A
C85          H97   1.082       .  S
C86          H98   1.082       .  S
C87          C88   1.374   1_545  A
C87          H99   1.082       .  S
C88         H100   1.082   1_565  S
C89          C90   1.375       .  A
C89         H101   1.082   1_565  S
C90         H102   1.082   1_565  S
C91         C328   1.494       .  S
C92         C292   1.482       .  S
C93         C301   1.497       .  S
C94         C337   1.479       .  S
C105        C110   1.407   1_556  A
C105        C526   1.401       .  A
C105        C664   1.475       .  S
C106        C107   1.398       .  A
C106        C525   1.401       .  A
C106        H111   1.084       .  S
C107        C528   1.399       .  A
C107        C268   1.472       .  S
C108        C109   1.400   1_556  A
C108        C527   1.399       .  A
C108        H112   1.085       .  S
C109        C110   1.405       .  A
C109        C253   1.478       .  S
C110        H113   1.084       .  S
C114        C115   1.404   1_556  A
C114        C539   1.411       .  A
C114        C205   1.483   1_556  S
C115        C116   1.401       .  A
C115        H120   1.084       .  S
C116        C117   1.399   1_554  A
C116        C232   1.479       .  S
C117        C538   1.402       .  A
C117        H121   1.085       .  S
C118        C119   1.408       .  A
C118        C537   1.400       .  A
C118        C217   1.484       .  S
C119        C534   1.411       .  A
C119        H122   1.083       .  S
N123        C128   1.355       .  A
N123        C127   1.353       .  A
N123        H155   1.036       .  S
N124        C131   1.349       .  A
N124        C132   1.351       .  A
N125        C130   1.352       .  A
N125        C129   1.354       .  A
N125        H156   1.036       .  S
N126        C133   1.353       .  A
N126        C134   1.351       .  A
C127        C135   1.388       .  A
C127        C143   1.417       .  A
C128        C144   1.418       .  A
C128        C136   1.386       .  A
C129        C137   1.387       .  A
C129        C146   1.415       .  A
C130        C145   1.416       .  A
C130        C138   1.387   1_655  A
C131        C143   1.411       .  A
C131        C139   1.387       .  A
C132        C146   1.410       .  A
C132        C140   1.385       .  A
C133        C141   1.385       .  A
C133        C144   1.413       .  A
C134        C142   1.387       .  A
C134        C145   1.413       .  A
C135        C136   1.374       .  A
C135        H147   1.082   1_655  S
C136        H148   1.082   1_655  S
C137        C138   1.374   1_655  A
C137        H149   1.082   1_655  S
C138        H150   1.082       .  S
C139        C140   1.374       .  A
C139        H151   1.082       .  S
C140        H152   1.082       .  S
C141        C142   1.373       .  A
C141        H153   1.082       .  S
C142        H154   1.082       .  S
C143        C265   1.480       .  S
C144        C220   1.494       .  S
C145        C229   1.486       .  S
C146        C256   1.487       .  S
O157       Mg159   2.147       .  S
O157       Mg585   2.153       .  S
O157        C192   1.234       .  S
C158        H197   1.081       .  S
C158        O171   1.235       .  S
C158        O195   1.269   1_455  A
Mg159       O608   2.155       .  S
Mg159       O199   2.269       .  S
Mg159       O170   2.297   1_455  S
Mg159       O623   2.287       .  S
O160       Mg185   2.160   1_655  S
O160       Mg622   2.158       .  S
O160        C181   1.234       .  S
O161        C192   1.268   1_565  A
O161       Mg185   2.300       .  S
C162        C316   1.486       .  S
C162        O164   1.271   1_565  A
C162        O176   1.273       .  A
O163        C191   1.270       .  A
O163       Mg165   2.299       .  S
O164       Mg196   2.256       .  S
Mg165       O171   2.156   1_545  S
Mg165       O577   2.154   1_554  S
Mg165       O179   2.275       .  S
Mg165       O587   2.298   1_554  S
C166        C349   1.485       .  S
C166        O204   1.271       .  A
C166        O172   1.274       .  A
O167        C174   1.276   1_545  A
O167       Mg585   2.303       .  S
H168        C181   1.081       .  S
C169        H194   1.081       .  S
C169        O183   1.234       .  S
C169        O184   1.269       .  A
O170        C193   1.269       .  A
O171       Mg605   2.157   1_554  S
O172       Mg622   2.308       .  S
C173        C208   1.489       .  S
C173        O186   1.272       .  A
C173        O178   1.276   1_655  A
C174        C280   1.492       .  S
C174        O201   1.272       .  A
Mg175       O182   2.145       .  S
Mg175       O603   2.161       .  S
Mg175       O177   2.308       .  S
Mg175       O204   2.253       .  S
Mg175       O596   2.302       .  S
O176       Mg595   2.299   1_554  S
O177        C181   1.270       .  A
O178       Mg605   2.309   1_554  S
O179        C198   1.273       .  A
O180        C200   1.272       .  A
O180       Mg616   2.287       .  S
O182       Mg616   2.169   1_565  S
O182        C193   1.235   1_565  S
O183       Mg202   2.162       .  S
O183       Mg595   2.158   1_554  S
O184       Mg196   2.302   1_565  S
Mg185       O591   2.160       .  S
Mg185       O201   2.272       .  S
Mg185       O598   2.305       .  S
O186       Mg202   2.267       .  S
H187        C192   1.081       .  S
O188       Mg196   2.142   1_455  S
O188       Mg579   2.153   1_554  S
O188        C191   1.235       .  S
H189        C191   1.081       .  S
H190        C193   1.081       .  S
O195       Mg202   2.301       .  S
Mg196       O602   2.164   1_544  S
Mg196       O600   2.297   1_554  S
C198        C388   1.480       .  S
C198        O203   1.272       .  A
O199        C200   1.272   1_455  A
C200        C241   1.482       .  S
Mg202       O580   2.157   1_554  S
Mg202       O592   2.305   1_554  S
O203       Mg579   2.286   1_554  S
C205        C210   1.414   1_655  A
C205        C626   1.401   1_554  A
C206        C207   1.401       .  A
C206        C625   1.402       .  A
C206        H215   1.084       .  S
C207        C628   1.420       .  A
C207        S211   1.804       .  S
C208        C209   1.406   1_655  A
C208        C627   1.420   1_554  A
C209        C210   1.403       .  A
C209        H216   1.084       .  S
C210        S212   1.804       .  S
S211        H214   1.407       .  S
S212        H213   1.406       .  S
C217        C218   1.405       .  A
C217        C222   1.414   1_655  A
C218        C219   1.400       .  A
C218        H227   1.084       .  S
C219        C220   1.412       .  A
C219        S223   1.804       .  S
C220        C221   1.405   1_655  A
C221        C222   1.404       .  A
C221        H228   1.084       .  S
C222        S224   1.804       .  S
S223        H226   1.406       .  S
S224        H225   1.405       .  S
C229        C230   1.404   1_655  A
C229        C234   1.412       .  A
C230        C231   1.404       .  A
C230        H239   1.083       .  S
C231        C232   1.411   1_455  A
C231        S235   1.806       .  S
C232        C233   1.403       .  A
C233        C234   1.396       .  A
C233        H240   1.084       .  S
C234        S236   1.805       .  S
S235        H238   1.407       .  S
S236        H237   1.406       .  S
C241        C246   1.416       .  A
C241        C662   1.406   1_655  A
C242        C243   1.398   1_556  A
C242        C661   1.406   1_455  A
C242        H251   1.084   1_556  S
C243        C664   1.410   1_454  A
C243        S247   1.804       .  S
C244        C245   1.404       .  A
C244        C663   1.411   1_655  A
C244        C525   1.480       .  S
C245        C246   1.401       .  A
C245        H252   1.084       .  S
C246        S248   1.804       .  S
S247        H250   1.406   1_554  S
S248        H249   1.407       .  S
C253        C254   1.403       .  A
C253        C258   1.413   1_655  A
C254        C255   1.399       .  A
C254        H263   1.084       .  S
C255        C256   1.412       .  A
C255        S259   1.805       .  S
C256        C257   1.403   1_655  A
C257        C258   1.401       .  A
C257        H264   1.084       .  S
C258        S260   1.803       .  S
S259        H262   1.405       .  S
S260        H261   1.406       .  S
C265        C266   1.401       .  A
C265        C270   1.412   1_655  A
C266        C267   1.396       .  A
C266        H275   1.084       .  S
C267        C268   1.410       .  A
C267        S271   1.803       .  S
C268        C269   1.402   1_655  A
C269        C270   1.398       .  A
C269        H276   1.084       .  S
C270        S272   1.805       .  S
S271        H274   1.406       .  S
S272        H273   1.404       .  S
C277        C278   1.404       .  A
C277        C702   1.410   1_565  A
C277        C482   1.482       .  S
C278        C279   1.402       .  A
C278        H287   1.084       .  S
C279        C280   1.418       .  A
C279        S283   1.802       .  S
C280        C701   1.410   1_565  A
C281        C282   1.399       .  A
C281        C700   1.411   1_544  A
C281        H288   1.083       .  S
C282        C697   1.410   1_544  A
C282        S284   1.804       .  S
S283        H286   1.408       .  S
S284        H285   1.407       .  S
C289        C290   1.403       .  A
C289        C294   1.412   1_565  A
C290        C291   1.398       .  A
C290        H299   1.084       .  S
C291        C292   1.411       .  A
C291        S295   1.804       .  S
C292        C293   1.403   1_565  A
C293        C294   1.397       .  A
C293        H300   1.084       .  S
C294        S296   1.804       .  S
S295        H298   1.405       .  S
S296        H297   1.406       .  S
C301        C302   1.403   1_565  A
C301        C306   1.416       .  A
C302        C303   1.401       .  A
C302        H311   1.084       .  S
C303        C304   1.415   1_545  A
C303        S307   1.804       .  S
C304        C305   1.405       .  A
C305        C306   1.406       .  A
C305        H312   1.084       .  S
C306        S308   1.804       .  S
S307        H310   1.407       .  S
S308        H309   1.404       .  S
C313        C314   1.402       .  A
C313        C318   1.410   1_565  A
C314        C315   1.402       .  A
C314        H323   1.084       .  S
C315        C316   1.418       .  A
C315        S319   1.803       .  S
C316        C317   1.408   1_565  A
C317        C318   1.398       .  A
C317        H324   1.084       .  S
C318        S740   1.805   1_554  S
S319        H322   1.407       .  S
S320        C738   1.806       .  S
S320        H321   1.404       .  S
C325        C326   1.404       .  A
C325        C330   1.414   1_565  A
C326        C327   1.405       .  A
C326        H335   1.084       .  S
C327        C328   1.416       .  A
C327        S331   1.804       .  S
C328        C329   1.403   1_565  A
C329        C330   1.400       .  A
C329        H336   1.084       .  S
C330        S332   1.805       .  S
S331        H334   1.405       .  S
S332        H333   1.407       .  S
C337        C338   1.402       .  A
C337        C342   1.410   1_565  A
C338        C339   1.398       .  A
C338        H347   1.084       .  S
C339        C340   1.412       .  A
C339        S343   1.804       .  S
C340        C341   1.402   1_565  A
C341        C342   1.394       .  A
C341        H348   1.084       .  S
C342        S344   1.805       .  S
S343        H346   1.406       .  S
S344        H345   1.405       .  S
C349        C350   1.404       .  A
C349        C774   1.419       .  A
C350        C351   1.400       .  A
C350        H359   1.084       .  S
C351        C352   1.417       .  A
C351        S355   1.805       .  S
C352        C773   1.402       .  A
C352        C430   1.486       .  S
C353        C354   1.400       .  A
C353        C772   1.401   1_554  A
C353        H360   1.084       .  S
C354        C769   1.420   1_554  A
C354        S356   1.803       .  S
S355        H358   1.407       .  S
S356        H357   1.408       .  S
C361        C362   1.403       .  A
C361        C366   1.410       .  A
C362        C363   1.399       .  A
C362        H371   1.083       .  S
C363        C364   1.407       .  A
C363        S367   1.806       .  S
C364        C365   1.401       .  A
C365        C366   1.401       .  A
C365        H372   1.083       .  S
C366        S368   1.806       .  S
S367        H370   1.407       .  S
S368        H369   1.407       .  S
C373        C374   1.403       .  A
C373        C378   1.414       .  A
C374        C375   1.403       .  A
C374        H383   1.084       .  S
C375        C376   1.416       .  A
C375        S379   1.805       .  S
C376        C377   1.402       .  A
C377        C378   1.398       .  A
C377        H384   1.084       .  S
C378        S380   1.805       .  S
S379        H382   1.404       .  S
S380        H381   1.407       .  S
C385        C386   1.403       .  A
C385        C810   1.411       .  A
C386        C387   1.400       .  A
C386        H395   1.084       .  S
C387        C388   1.415       .  A
C387        S391   1.804       .  S
C388        C809   1.406       .  A
C389        C390   1.399       .  A
C389        C808   1.406       .  A
C389        H396   1.084       .  S
C390        C805   1.410       .  A
C390        S392   1.804       .  S
S391        H394   1.407       .  S
S392        H393   1.406       .  S
C397        C398   1.401       .  A
C397        C402   1.416       .  A
C398        C399   1.396       .  A
C398        H407   1.084       .  S
C399        C400   1.415       .  A
C399        S403   1.805       .  S
C400        C401   1.404       .  A
C401        C402   1.404       .  A
C401        H408   1.084       .  S
C402        S404   1.805       .  S
S403        H406   1.406       .  S
S404        H405   1.404       .  S
C409        C410   1.402       .  A
C409        C414   1.410       .  A
C410        C411   1.397       .  A
C410        H419   1.084       .  S
C411        C412   1.414       .  A
C411        S415   1.804       .  S
C412        C413   1.403       .  A
C413        C414   1.395       .  A
C413        H420   1.084       .  S
C414        S416   1.804       .  S
S415        H418   1.406       .  S
S416        H417   1.406       .  S
C421        C422   1.399       .  A
C421        C805   1.475       .  S
C422        C423   1.397       .  A
C422        H427   1.084       .  S
C423        C832   1.474       .  S
C424        C425   1.402   1_554  A
C424        H428   1.084       .  S
C425        C426   1.407       .  A
C425        C820   1.483       .  S
C426        H429   1.083       .  S
C430        C431   1.412       .  A
C431        C432   1.408       .  A
C431        H436   1.083       .  S
C432        C793   1.484       .  S
C433        C434   1.397   1_554  A
C433        H437   1.085       .  S
C434        C435   1.399       .  A
C434        C781   1.473       .  S
C435        H438   1.084       .  S
N439        C444   1.351       .  A
N439        C443   1.355       .  A
N439        H471   1.038       .  S
N440        C447   1.352       .  A
N440        C448   1.348       .  A
N441        C446   1.355       .  A
N441        C445   1.351       .  A
N441        H472   1.038       .  S
N442        C449   1.348       .  A
N442        C450   1.351       .  A
C443        C451   1.386       .  A
C443        C459   1.414       .  A
C444        C460   1.415       .  A
C444        C452   1.388       .  A
C445        C453   1.388       .  A
C445        C462   1.415       .  A
C446        C461   1.415       .  A
C446        C454   1.386       .  A
C447        C459   1.410       .  A
C447        C455   1.384       .  A
C448        C462   1.411       .  A
C448        C456   1.387       .  A
C449        C457   1.387       .  A
C449        C460   1.411       .  A
C450        C458   1.385       .  A
C450        C461   1.410       .  A
C451        C452   1.374       .  A
C451        H463   1.082       .  S
C452        H464   1.082       .  S
C453        C454   1.374       .  A
C453        H465   1.082       .  S
C454        H466   1.082       .  S
C455        C456   1.374       .  A
C455        H467   1.082       .  S
C456        H468   1.082       .  S
C457        C458   1.374       .  A
C457        H469   1.082       .  S
C458        H470   1.082       .  S
C459        C796   1.491       .  S
C460        C829   1.479       .  S
C461        C817   1.489       .  S
C462        C784   1.478       .  S
C473        C478   1.402       .  A
C473        C733   1.479       .  S
C474        C475   1.407       .  A
C474        H479   1.083       .  S
C475        C745   1.482       .  S
C476        C477   1.399       .  A
C476        H480   1.085       .  S
C477        C478   1.399       .  A
C477        C760   1.474       .  S
C478        H481   1.084       .  S
C482        C483   1.411       .  A
C483        C484   1.407       .  A
C483        H488   1.083       .  S
C484        C485   1.402       .  A
C484        C724   1.481       .  S
C485        H489   1.084       .  S
C486        C487   1.398       .  A
C486        C709   1.473       .  S
C487        H490   1.084       .  S
N491        C496   1.352       .  A
N491        C495   1.354       .  A
N491        H523   1.039       .  S
N492        C499   1.352       .  A
N492        C500   1.349       .  A
N493        C498   1.354       .  A
N493        C497   1.352       .  A
N493        H524   1.037       .  S
N494        C501   1.349       .  A
N494        C502   1.351       .  A
C495        C503   1.387       .  A
C495        C511   1.415       .  A
C496        C512   1.415       .  A
C496        C504   1.388       .  A
C497        C505   1.388       .  A
C497        C514   1.416       .  A
C498        C513   1.416       .  A
C498        C506   1.386       .  A
C499        C511   1.411       .  A
C499        C507   1.385       .  A
C500        C514   1.412       .  A
C500        C508   1.387       .  A
C501        C509   1.387       .  A
C501        C512   1.411       .  A
C502        C510   1.385       .  A
C502        C513   1.411       .  A
C503        C504   1.374       .  A
C503        H515   1.082       .  S
C504        H516   1.082       .  S
C505        C506   1.374       .  A
C505        H517   1.082       .  S
C506        H518   1.082       .  S
C507        C508   1.374       .  A
C507        H519   1.082   1_565  S
C508        H520   1.082       .  S
C509        C510   1.374       .  A
C509        H521   1.082   1_565  S
C510        H522   1.082   1_565  S
C511        C748   1.492       .  S
C512        C712   1.480       .  S
C513        C721   1.488       .  S
C514        C757   1.481       .  S
C525        C530   1.410       .  A
C526        C527   1.398       .  A
C526        H531   1.084       .  S
C527        C688   1.470       .  S
C528        C529   1.402       .  A
C528        H532   1.084       .  S
C529        C530   1.409       .  A
C529        C673   1.485       .  S
C530        H533   1.083       .  S
C534        C535   1.404       .  A
C534        C625   1.484       .  S
C535        C536   1.400       .  A
C535        H540   1.084       .  S
C536        C537   1.399       .  A
C536        C652   1.476       .  S
C537        H541   1.085       .  S
C538        C539   1.409       .  A
C538        C637   1.487       .  S
C539        H542   1.083       .  S
N543        C548   1.355       .  A
N543        C547   1.352       .  A
N543        H575   1.037       .  S
N544        C551   1.348       .  A
N544        C552   1.352       .  A
N545        C550   1.352       .  A
N545        C549   1.355       .  A
N545        H576   1.037       .  S
N546        C553   1.353       .  A
N546        C554   1.350       .  A
C547        C555   1.388   1_655  A
C547        C563   1.415       .  A
C548        C564   1.416       .  A
C548        C556   1.386       .  A
C549        C557   1.386   1_655  A
C549        C566   1.415       .  A
C550        C565   1.416       .  A
C550        C558   1.388   1_655  A
C551        C563   1.411       .  A
C551        C559   1.387       .  A
C552        C566   1.410       .  A
C552        C560   1.385       .  A
C553        C561   1.385       .  A
C553        C564   1.412       .  A
C554        C562   1.387       .  A
C554        C565   1.413       .  A
C555        C556   1.374   1_455  A
C555        H567   1.082       .  S
C556        H568   1.082   1_655  S
C557        C558   1.375       .  A
C557        H569   1.082       .  S
C558        H570   1.082       .  S
C559        C560   1.374       .  A
C559        H571   1.082       .  S
C560        H572   1.082       .  S
C561        C562   1.374       .  A
C561        H573   1.082       .  S
C562        H574   1.082       .  S
C563        C685   1.478       .  S
C564        C640   1.495       .  S
C565        C649   1.482       .  S
C566        C676   1.490       .  S
O577       Mg579   2.143       .  S
O577        C612   1.234       .  S
C578        H617   1.081       .  S
C578        O591   1.235       .  S
C578        O615   1.270   1_455  A
Mg579       O619   2.257       .  S
Mg579       O590   2.299   1_455  S
O580       Mg605   2.157   1_655  S
O580        C601   1.234       .  S
O581        C612   1.269   1_565  A
O581       Mg605   2.300       .  S
C582        C736   1.491       .  S
C582        O584   1.271   1_565  A
C582        O596   1.273       .  A
O583        C611   1.270       .  A
O583       Mg585   2.299       .  S
O584       Mg616   2.261       .  S
Mg585       O591   2.157   1_545  S
Mg585       O599   2.274       .  S
C586        C769   1.485       .  S
C586        O624   1.270       .  A
C586        O592   1.274       .  A
O587        C594   1.275   1_545  A
H588        C601   1.081       .  S
C589        H614   1.081       .  S
C589        O603   1.234       .  S
C589        O604   1.269       .  A
O590        C613   1.269       .  A
C593        C628   1.487       .  S
C593        O606   1.272       .  A
C593        O598   1.275   1_655  A
C594        C700   1.494       .  S
C594        O621   1.272       .  A
Mg595       O602   2.148       .  S
Mg595       O597   2.307       .  S
Mg595       O624   2.254       .  S
O597        C601   1.270       .  A
O599        C618   1.273       .  A
O600        C620   1.273       .  A
O602        C613   1.235   1_565  S
O603       Mg622   2.160       .  S
O604       Mg616   2.299   1_565  S
Mg605       O621   2.275       .  S
O606       Mg622   2.269       .  S
H607        C612   1.081       .  S
O608       Mg616   2.145   1_455  S
O608        C611   1.235       .  S
H609        C611   1.081       .  S
H610        C613   1.081       .  S
O615       Mg622   2.303       .  S
C618        C808   1.481       .  S
C618        O623   1.273       .  A
O619        C620   1.271   1_455  A
C620        C661   1.480       .  S
C625        C630   1.414   1_655  A
C626        C627   1.401       .  A
C626        H635   1.084       .  S
C627        S631   1.803       .  S
C628        C629   1.405   1_655  A
C629        C630   1.402       .  A
C629        H636   1.084       .  S
C630        S632   1.804       .  S
S631        H634   1.407       .  S
S632        H633   1.406       .  S
C637        C638   1.405       .  A
C637        C642   1.415   1_655  A
C638        C639   1.399       .  A
C638        H647   1.084       .  S
C639        C640   1.413       .  A
C639        S643   1.804       .  S
C640        C641   1.406   1_655  A
C641        C642   1.405       .  A
C641        H648   1.084       .  S
C642        S644   1.803       .  S
S643        H646   1.406       .  S
S644        H645   1.406       .  S
C649        C650   1.404   1_655  A
C649        C654   1.410       .  A
C650        C651   1.405       .  A
C650        H659   1.083       .  S
C651        C652   1.411   1_455  A
C651        S655   1.806       .  S
C652        C653   1.402       .  A
C653        C654   1.393       .  A
C653        H660   1.084       .  S
C654        S656   1.804       .  S
S655        H658   1.407       .  S
S656        H657   1.405       .  S
C661        C666   1.415       .  A
C662        C663   1.400       .  A
C662        H671   1.084       .  S
C663        S667   1.803       .  S
C664        C665   1.403       .  A
C665        C666   1.400       .  A
C665        H672   1.084       .  S
C666        S668   1.803       .  S
S667        H670   1.406       .  S
S668        H669   1.407       .  S
C673        C674   1.405       .  A
C673        C678   1.415   1_655  A
C674        C675   1.400       .  A
C674        H683   1.084       .  S
C675        C676   1.412       .  A
C675        S679   1.805       .  S
C676        C677   1.403   1_655  A
C677        C678   1.403       .  A
C677        H684   1.084       .  S
C678        S680   1.802       .  S
S679        H682   1.405       .  S
S680        H681   1.406       .  S
C685        C686   1.401       .  A
C685        C690   1.411   1_655  A
C686        C687   1.395       .  A
C686        H695   1.084       .  S
C687        C688   1.410       .  A
C687        S691   1.804       .  S
C688        C689   1.403   1_655  A
C689        C690   1.398       .  A
C689        H696   1.084       .  S
C690        S692   1.804       .  S
S691        H694   1.406       .  S
S692        H693   1.405       .  S
C697        C698   1.405       .  A
C698        C699   1.403       .  A
C698        H707   1.084       .  S
C699        C700   1.419       .  A
C699        S703   1.802       .  S
C701        C702   1.399       .  A
C701        H708   1.083       .  S
C702        S704   1.804       .  S
S703        H706   1.408       .  S
S704        H705   1.407       .  S
C709        C710   1.403       .  A
C709        C714   1.412   1_565  A
C710        C711   1.398       .  A
C710        H719   1.084       .  S
C711        C712   1.412       .  A
C711        S715   1.804       .  S
C712        C713   1.401   1_565  A
C713        C714   1.396       .  A
C713        H720   1.084       .  S
C714        S716   1.804       .  S
S715        H718   1.404       .  S
S716        H717   1.406       .  S
C721        C722   1.402   1_565  A
C721        C726   1.415       .  A
C722        C723   1.399       .  A
C722        H731   1.084       .  S
C723        C724   1.413   1_545  A
C723        S727   1.803       .  S
C724        C725   1.404       .  A
C725        C726   1.404       .  A
C725        H732   1.084       .  S
C726        S728   1.806       .  S
S727        H730   1.406       .  S
S728        H729   1.403       .  S
C733        C734   1.402       .  A
C733        C738   1.411   1_565  A
C734        C735   1.402       .  A
C734        H743   1.084       .  S
C735        C736   1.419       .  A
C735        S739   1.803       .  S
C736        C737   1.409   1_565  A
C737        C738   1.401       .  A
C737        H744   1.084       .  S
S739        H742   1.407       .  S
S740        H741   1.406   1_556  S
C745        C746   1.403       .  A
C745        C750   1.414   1_565  A
C746        C747   1.403       .  A
C746        H755   1.084       .  S
C747        C748   1.415       .  A
C747        S751   1.804       .  S
C748        C749   1.403   1_565  A
C749        C750   1.399       .  A
C749        H756   1.084       .  S
C750        S752   1.805       .  S
S751        H754   1.405       .  S
S752        H753   1.407       .  S
C757        C758   1.403       .  A
C757        C762   1.410   1_565  A
C758        C759   1.400       .  A
C758        H767   1.084       .  S
C759        C760   1.413       .  A
C759        S763   1.804       .  S
C760        C761   1.402   1_565  A
C761        C762   1.395       .  A
C761        H768   1.084       .  S
C762        S764   1.804       .  S
S763        H766   1.406       .  S
S764        H765   1.405       .  S
C769        C770   1.405       .  A
C770        C771   1.399       .  A
C770        H779   1.084       .  S
C771        C772   1.414       .  A
C771        S775   1.804       .  S
C773        C774   1.400       .  A
C773        H780   1.084       .  S
C774        S776   1.803       .  S
S775        H778   1.407       .  S
S776        H777   1.408       .  S
C781        C782   1.403       .  A
C781        C786   1.413       .  A
C782        C783   1.395       .  A
C782        H791   1.084       .  S
C783        C784   1.410       .  A
C783        S787   1.804       .  S
C784        C785   1.401       .  A
C785        C786   1.398       .  A
C785        H792   1.084       .  S
C786        S788   1.804       .  S
S787        H790   1.406       .  S
S788        H789   1.406       .  S
C793        C794   1.404       .  A
C793        C798   1.414       .  A
C794        C795   1.404       .  A
C794        H803   1.084       .  S
C795        C796   1.415       .  A
C795        S799   1.805       .  S
C796        C797   1.402       .  A
C797        C798   1.399       .  A
C797        H804   1.084       .  S
C798        S800   1.805       .  S
S799        H802   1.404       .  S
S800        H801   1.406       .  S
C805        C806   1.402       .  A
C806        C807   1.400       .  A
C806        H815   1.084       .  S
C807        C808   1.416       .  A
C807        S811   1.804       .  S
C809        C810   1.400       .  A
C809        H816   1.084   1_554  S
C810        S812   1.804   1_554  S
S811        H814   1.407       .  S
S812        H813   1.406   1_556  S
C817        C818   1.402       .  A
C817        C822   1.414       .  A
C818        C819   1.399       .  A
C818        H827   1.084       .  S
C819        C820   1.415       .  A
C819        S823   1.805       .  S
C820        C821   1.403       .  A
C821        C822   1.403       .  A
C821        H828   1.084       .  S
C822        S824   1.803       .  S
S823        H826   1.407       .  S
S824        H825   1.405       .  S
C829        C830   1.402       .  A
C829        C834   1.410       .  A
C830        C831   1.398       .  A
C830        H839   1.084       .  S
C831        C832   1.414       .  A
C831        S835   1.804       .  S
C832        C833   1.403       .  A
C833        C834   1.394       .  A
C833        H840   1.084       .  S
C834        S836   1.804       .  S
S835        H838   1.406       .  S
S836        H837   1.406       .  S
