geometry optimzed in LAMMPS
_audit_creation_date              2020-11-30 
_audit_creation_method            'lammps2cif' 
_symmetry_space_group_name_H-M    'P1' 
_symmetry_Int_Tables_number       1 
_symmetry_cell_setting            triclinic 
loop_ 
_symmetry_equiv_pos_as_xyz 
  x,y,z 
_cell_length_a                    51.86102386 
_cell_length_b                    51.826471098302804 
_cell_length_c                    30.30883958300595 
_cell_angle_alpha                 89.87179515485941 
_cell_angle_beta                  90.0382552375411 
_cell_angle_gamma                 120.13525840411167 
loop_ 
_atom_site_label 
_atom_site_type_symbol 
_atom_site_fract_x 
_atom_site_fract_y 
_atom_site_fract_z 
_atom_site_charge 
C1          C  0.22079301  0.22775523  0.28711089     0.80300
N2          N  0.24533981  0.24957998  0.30784778    -0.78000
C3          C  0.26757281  0.27210974  0.28430902     0.82800
N4          N  0.26540142  0.27276584  0.23969281    -0.77900
C5          C  0.24076614  0.25129632  0.21871559     0.82900
N6          N  0.21874340  0.22889605  0.24260954    -0.79600
C7          C  0.21942255  0.22949934  0.81650143     0.80300
N8          N  0.24235472  0.25428861  0.79798912    -0.78000
C9          C  0.26386394  0.27594250  0.82334539     0.82800
N10         N  0.26260630  0.27249131  0.86781534    -0.77900
C11         C  0.23970499  0.24789791  0.88690912     0.82900
N12         N  0.21793786  0.22659109  0.86119769    -0.79600
C13         C  0.23802833  0.45983845  0.28825949     0.80300
N14         N  0.23867198  0.45917891  0.24345276    -0.78000
C15         C  0.21724781  0.46038908  0.21917921     0.82800
N16         N  0.19467001  0.46159935  0.24003852    -0.77900
C17         C  0.19345285  0.46166872  0.28478149     0.82900
N18         N  0.21516534  0.46075687  0.30882921    -0.79600
C19         C  0.23444082  0.45654560  0.81653893     0.80300
N20         N  0.23530086  0.45373842  0.86100313    -0.78000
C21         C  0.21294751  0.45153115  0.88703157     0.82800
N22         N  0.18933385  0.45183682  0.86802339    -0.77900
C23         C  0.18814522  0.45451196  0.82357877     0.82900
N24         N  0.21053057  0.45643111  0.79796393    -0.79600
C25         C  0.49728592  0.24278652  0.28993527     0.80300
N26         N  0.50124213  0.24494063  0.24554798    -0.78000
C27         C  0.50160586  0.22279996  0.22217963     0.82800
N28         N  0.49799463  0.19820982  0.24403593    -0.77900
C29         C  0.49384617  0.19559347  0.28847716     0.82900
N30         N  0.49394702  0.21819684  0.31130434    -0.79600
C31         C  0.50442324  0.24512528  0.82105879     0.80300
N32         N  0.50577301  0.24610957  0.86586210    -0.78000
C33         C  0.50817830  0.22489867  0.88897642     0.82800
N34         N  0.50865866  0.20227413  0.86708823    -0.77900
C35         C  0.50802919  0.20148559  0.82231056     0.82900
N36         N  0.50599633  0.22298370  0.79950340    -0.79600
O37         O  0.41502045  0.99466462  0.50736107    -0.88100
C38         C  0.07035637  0.06830308  0.61586192     1.12000
O39         O  0.45534529  0.47500540  0.55486635    -1.35900
O40         O  0.04848794  0.06865335  0.50012058    -0.89500
O41         O  0.39490118  0.44500394  0.50503769    -0.90200
O42         O  0.45692965  0.44287142  0.46373129    -0.79000
O43         O  0.48191342  0.03242669  0.51068450    -1.01100
C44         C  0.04339288  0.48018377  0.47396733     1.22000
O45         O  0.48977525  0.44740881  0.55640401    -1.36000
Mn46       Mn  0.48809829  0.47827038  0.60238837     1.82100
O47         O  0.01916235  0.47784588  0.46165548    -0.78100
O48         O  0.07692845  0.04777173  0.50540434    -0.87500
C49         C  0.04358124  0.48098503  0.63566910     1.13100
C50         C  0.07095170  0.06656120  0.48831181     1.07800
O51         O  0.45860102  0.44794931  0.64904743    -0.79000
O52         O  0.01734928  0.00951283  0.55330416    -1.32700
O53         O  0.43111619  0.41796119  0.59981936    -0.98200
C54         C  0.49246683  0.39235580  0.49572723     1.06600
Mn55       Mn  0.06069973  0.01506948  0.55464987     1.48600
O56         O  0.46782418  0.38626551  0.51333579    -0.87400
Mn57       Mn  0.41454980  0.43347690  0.55601254     1.49600
O58         O  0.41792580  0.99703140  0.60559107    -0.91300
C59         C  0.48181987  0.02714335  0.47141663     1.19700
C60         C  0.39780235  0.47136257  0.61871938     1.11800
Mn61       Mn  0.48713935  0.47626652  0.50698258     1.81000
O62         O  0.04822526  0.48163451  0.59623977    -0.96500
Mn63       Mn  0.44957749  0.01287037  0.55436672     1.49300
C64         C  0.39610271  0.46901386  0.49251859     1.08300
Mn65       Mn  0.03106668  0.44802474  0.55526212     1.49900
C66         C  0.49527922  0.39631968  0.62383611     1.11200
O67         O  0.43132635  0.41569062  0.51684639    -1.02300
O68         O  0.07619139  0.04823057  0.60393524    -0.91900
C69         C  0.43489151  0.41902777  0.47708443     1.22500
O70         O  0.04775089  0.48141182  0.51355143    -1.02700
O71         O  0.04978284  0.07140450  0.59837210    -0.90100
O72         O  0.01885690  0.41609503  0.60492155    -0.89700
O73         O  0.39446501  0.44718111  0.60289135    -0.89700
Mn74       Mn  0.01651148  0.05026888  0.55067097     1.47900
O75         O  0.02011277  0.48038611  0.64749598    -0.78200
C76         C  0.43543909  0.42429364  0.63889766     1.15600
O77         O  0.48417424  0.00504480  0.46067351    -0.76900
O78         O  0.48714531  0.00910134  0.64565507    -0.76500
Mn79       Mn  0.45175174  0.40407753  0.56039659     1.51100
O80         O  0.01717030  0.41507873  0.50646438    -0.88900
O81         O  0.48402734  0.03496432  0.59400633    -0.96400
O82         O  0.46921151  0.39019296  0.61205715    -0.91400
C83         C  0.48610162  0.03165112  0.63355724     1.13400
C84         C  0.50611842  0.08285463  0.73416753    -0.22300
C85         C  0.49615655  0.10215581  0.72028034     0.09600
C86         C  0.48178477  0.09744366  0.67914933     0.10000
C87         C  0.47851595  0.07406025  0.65212247    -0.17200
C88         C  0.48875223  0.05473790  0.66543836    -0.27700
C89         C  0.50230461  0.05895832  0.70760286     0.18400
C90         C  0.50072364  0.12714657  0.74926018     0.12300
C91         C  0.46955745  0.11691089  0.66401821    -0.12000
H92         H  0.46772351  0.07079309  0.62033131     0.12600
C93         C  0.01335134  0.03893761  0.72472912    -0.22900
H94         H  0.01693337  0.08657093  0.76602280     0.08300
C95         C  0.48191326  0.12252831  0.78563111     0.04600
C96         C  0.48565199  0.14720618  0.81000624    -0.20100
C97         C  0.50759710  0.17638739  0.79855101    -0.12400
C98         C  0.52726731  0.18083883  0.76319946     0.13300
C99         C  0.52344405  0.15613567  0.73888394    -0.22800
C100        C  0.45732878  0.09166709  0.79776092    -0.05900
H101        H  0.47066621  0.14380018  0.83717065     0.14800
C102        C  0.05289425  0.21110162  0.75077143    -0.16100
H103        H  0.03814373  0.15951888  0.71132826     0.09200
H104        H  0.49436268  0.01583002  0.72855137     0.07000
H105        H  0.02428662  0.04630678  0.75743959     0.08200
H106        H  0.02992936  0.03914116  0.70148372     0.07300
H107        H  0.48790116  0.14038587  0.66095063     0.02100
H108        H  0.45295833  0.11569514  0.68830828     0.02600
H109        H  0.45836969  0.10977925  0.63144213     0.06100
H110        H  0.44425084  0.09203807  0.82650818     0.05100
H111        H  0.46696703  0.07743656  0.80642626    -0.00700
H112        H  0.44186139  0.08158228  0.76944381     0.00800
H113        H  0.07399706  0.21050041  0.75171127     0.04500
H114        H  0.05567855  0.22906232  0.77341702     0.06400
H115        H  0.04950464  0.21690014  0.71680221     0.07300
C116        C  0.48280959  0.34812391  0.72594823    -0.22300
C117        C  0.50332895  0.33859104  0.71795658     0.09600
C118        C  0.52282675  0.35018155  0.68163922     0.10000
C119        C  0.02037025  0.36997825  0.65273440    -0.17200
C120        C  0.49881448  0.37849864  0.65921989    -0.27700
C121        C  0.48075811  0.36850942  0.69760658     0.18400
C122        C  0.50283301  0.31502289  0.74622592     0.12300
C123        C  0.04572969  0.34105668  0.67277789    -0.12000
H124        H  0.03463986  0.37792050  0.62388429     0.12600
C125        C  0.46008655  0.37965778  0.71074871    -0.22900
H126        H  0.46834354  0.33963126  0.75455547     0.08300
C127        C  0.51987718  0.32170263  0.78513794     0.04600
C128        C  0.51939181  0.29834467  0.80949967    -0.20100
C129        C  0.50205800  0.26845139  0.79591829    -0.12400
C130        C  0.48386193  0.26184852  0.75785968     0.13300
C131        C  0.48505455  0.28530106  0.73309277    -0.22800
C132        C  0.03876839  0.35345662  0.80052977    -0.05900
H133        H  0.03314850  0.30353534  0.83876939     0.14800
C134        C  0.46192392  0.23053011  0.74314548    -0.16100
H135        H  0.47160631  0.28034343  0.70351725     0.09200
H136        H  0.46504999  0.38814682  0.74513026     0.07000
H137        H  0.43660059  0.36116683  0.70901151     0.08200
H138        H  0.46290052  0.39843379  0.68996206     0.07300
H139        H  0.03445903  0.31661162  0.66725668     0.02100
H140        H  0.06099252  0.34693506  0.70142974     0.02600
H141        H  0.05938221  0.35242377  0.64316189     0.06100
H142        H  0.05076343  0.35484109  0.83159562     0.05100
H143        H  0.02440405  0.36331543  0.80660020    -0.00700
H144        H  0.05558141  0.36680580  0.77498400     0.00800
H145        H  0.43969384  0.22837133  0.73827002     0.04500
H146        H  0.45865442  0.21324317  0.76754563     0.06400
H147        H  0.46939503  0.22585783  0.71135942     0.07300
C148        C  0.47065701  0.11530550  0.32054738    -0.22300
C149        C  0.48586482  0.11989557  0.36055979     0.09600
C150        C  0.00347884  0.14919044  0.37669642     0.10000
C151        C  0.00535386  0.17322782  0.35248286    -0.17200
C152        C  0.49017260  0.16884682  0.31237433    -0.27700
C153        C  0.47206753  0.13925246  0.29658126     0.18400
C154        C  0.48206981  0.09365859  0.38599259     0.12300
C155        C  0.02081760  0.15523564  0.41909738    -0.12000
H156        H  0.01922207  0.19574556  0.36472229     0.12600
C157        C  0.45260958  0.13159725  0.25615535    -0.22900
H158        H  0.45672580  0.09269097  0.30866374     0.08300
C159        C  0.46253208  0.08250342  0.42240491     0.04600
C160        C  0.46237260  0.06018683  0.44887727    -0.20100
C161        C  0.48001516  0.04746624  0.43847699    -0.12400
C162        C  0.49723677  0.05651849  0.39928899     0.13300
C163        C  0.49852018  0.07998974  0.37400845    -0.22800
C164        C  0.44151386  0.09379526  0.43292309    -0.05900
H165        H  0.44845068  0.05271189  0.47810074     0.14800
C166        C  0.51486645  0.04218194  0.38457846    -0.16100
H167        H  0.51270464  0.08800780  0.34507659     0.09200
H168        H  0.42938923  0.11448243  0.26487571     0.07000
H169        H  0.46086336  0.12235223  0.23034481     0.08200
H170        H  0.45141796  0.15070892  0.24229787     0.07300
H171        H  0.03643090  0.14656905  0.41673865     0.02100
H172        H  0.00550985  0.14418069  0.44723784     0.02600
H173        H  0.03403955  0.17948275  0.42635648     0.06100
H174        H  0.42736244  0.08223352  0.46205031     0.05100
H175        H  0.42658217  0.08976903  0.40430857    -0.00700
H176        H  0.95365885  0.11773374  0.43989035     0.00800
H177        H  0.49943995  0.01825589  0.37724216     0.04500
H178        H  0.53061341  0.04400873  0.41078830     0.06400
H179        H  0.02823132  0.05317185  0.35451176     0.07300
C180        C  0.47449455  0.32241981  0.43019358    -0.22300
C181        C  0.49694911  0.33425139  0.39817924     0.09600
C182        C  0.01703535  0.36520749  0.39682503     0.10000
C183        C  0.01473795  0.38367301  0.42857355    -0.17200
C184        C  0.49254883  0.37189271  0.46142742    -0.27700
C185        C  0.47190152  0.34070048  0.46183641     0.18400
C186        C  0.49963550  0.31320663  0.36817995     0.12300
C187        C  0.04099929  0.37865321  0.36216221    -0.12000
H188        H  0.03045394  0.40744733  0.42779430     0.12600
C189        C  0.44777798  0.32607829  0.49629947    -0.22900
H190        H  0.45922888  0.29851491  0.43086547     0.08300
C191        C  0.01572470  0.29915257  0.38084086     0.04600
C192        C  0.01462900  0.27650201  0.35427263    -0.20100
C193        C  0.49775290  0.26743196  0.31533553    -0.12400
C194        C  0.48180926  0.28189138  0.30236703     0.13300
C195        C  0.48330431  0.30483918  0.32883176    -0.22800
C196        C  0.03373032  0.30779677  0.42279926    -0.05900
H197        H  0.02700111  0.26567936  0.36412322     0.14800
C198        C  0.46156930  0.27284356  0.26266728    -0.16100
H199        H  0.47059361  0.31544390  0.31968418     0.09200
H200        H  0.43511742  0.30140875  0.49284942     0.07000
H201        H  0.43154007  0.33394408  0.49283483     0.08200
H202        H  0.45779478  0.33131484  0.52979697     0.07300
H203        H  0.53059559  0.37430903  0.32886319     0.02100
H204        H  0.05561121  0.36876113  0.36425194     0.02600
H205        H  0.05514490  0.40309586  0.36654615     0.06100
H206        H  0.04509958  0.29468660  0.42775523     0.05100
H207        H  0.01892332  0.30378821  0.45155146    -0.00700
H208        H  0.05103654  0.33178328  0.42161158     0.00800
H209        H  0.43902957  0.26795611  0.27311537     0.04500
H210        H  0.45855775  0.25255305  0.24608141     0.06400
H211        H  0.47053906  0.29145480  0.23843280     0.07300
C212        C  0.51819759  0.25102950  0.10263845    -0.22300
C213        C  0.50606116  0.22405122  0.07965000     0.09600
C214        C  0.49318166  0.19694927  0.10318885     0.10000
C215        C  0.49251397  0.19741854  0.14944638    -0.17200
C216        C  0.50413443  0.22438758  0.17303353    -0.27700
C217        C  0.51731844  0.25169392  0.14895065     0.18400
C218        C  0.50665731  0.22472302  0.03077918     0.12300
C219        C  0.47966784  0.16751722  0.07938003    -0.12000
H220        H  0.48223511  0.17639822  0.16717471     0.12600
C221        C  0.03092418  0.28169822  0.17118424    -0.22900
H222        H  0.02812403  0.27169133  0.08404823     0.08300
C223        C  0.48536486  0.22804405  0.00628602     0.04600
C224        C  0.48682729  0.22862384  0.96001886    -0.20100
C225        C  0.50899726  0.22577666  0.93771962    -0.12400
C226        C  0.03075016  0.22311652  0.96247796     0.13300
C227        C  0.02905292  0.22230729  0.00871789    -0.22800
C228        C  0.46083551  0.23044047  0.02903317    -0.05900
H229        H  0.47020643  0.23069988  0.94110405     0.14800
C230        C  0.05672184  0.22227803  0.94164645    -0.16100
H231        H  0.04560287  0.22018921  0.02778994     0.09200
H232        H  0.51341923  0.28433438  0.18802832     0.07000
H233        H  0.04193343  0.30031368  0.14709474     0.08200
H234        H  0.04809780  0.28401648  0.19526841     0.07300
H235        H  0.49697916  0.16641427  0.05930256     0.02100
H236        H  0.46149096  0.16517422  0.05737152     0.02600
H237        H  0.47015123  0.14836855  0.10270615     0.06100
H238        H  0.44576846  0.23246598  0.00499754     0.05100
H239        H  0.47058550  0.25044017  0.05055778    -0.00700
H240        H  0.44729806  0.21022916  0.04946909     0.00800
H241        H  0.07787039  0.24039816  0.95571032     0.04500
H242        H  0.05811063  0.22566189  0.90547747     0.06400
H243        H  0.05512023  0.20051366  0.94891855     0.07300
C244        C  0.29367742  0.98067132  0.72651491    -0.22300
C245        C  0.30594607  0.46266462  0.73638039     0.09600
C246        C  0.29540395  0.44339366  0.77315908     0.10000
C247        C  0.27230488  0.44218322  0.79893570    -0.17200
C248        C  0.25957246  0.45991003  0.78887472    -0.27700
C249        C  0.27109599  0.98009415  0.75273678     0.18400
C250        C  0.32960188  0.46418005  0.70726066     0.12300
C251        C  0.30843109  0.42401482  0.78492014    -0.12000
H252        H  0.26382802  0.42695585  0.82672399     0.12600
C253        C  0.26145403  0.00241200  0.74177280    -0.22900
H254        H  0.30222748  0.99573971  0.69850917     0.08300
C255        C  0.32243761  0.44559074  0.67005077     0.04600
C256        C  0.34540734  0.44812118  0.64277328    -0.20100
C257        C  0.37548425  0.46896763  0.65151857    -0.12400
C258        C  0.38266561  0.48720845  0.68956125     0.13300
C259        C  0.35952934  0.48476107  0.71663192    -0.22800
C260        C  0.29049652  0.42340789  0.65878031    -0.05900
H261        H  0.33974090  0.43420273  0.61364091     0.14800
C262        C  0.41420120  0.00857295  0.70373594    -0.16100
H263        H  0.36487926  0.99879912  0.74558820     0.09200
H264        H  0.24925950  0.99638384  0.70990343     0.07000
H265        H  0.28144771  0.02496987  0.73856977     0.08200
H266        H  0.24739384  0.00431563  0.76747701     0.07300
H267        H  0.33263853  0.43823130  0.79170047     0.02100
H268        H  0.30529196  0.40874845  0.75719458     0.02600
H269        H  0.29766481  0.41022519  0.81468339     0.06100
H270        H  0.28879119  0.41067291  0.62842900     0.05100
H271        H  0.27792630  0.43526505  0.65322916    -0.00700
H272        H  0.27998225  0.40723224  0.68624418     0.00800
H273        H  0.41844231  0.03179895  0.70240638     0.04500
H274        H  0.43095634  0.00701916  0.68325125     0.06400
H275        H  0.41750840  0.00341661  0.73815420     0.07300
C276        C  0.11170638  0.48372658  0.68922328    -0.22300
C277        C  0.09915699  0.46714686  0.72757718     0.09600
C278        C  0.06892716  0.45671521  0.73721099     0.10000
C279        C  0.05168675  0.46263068  0.70741240    -0.17200
C280        C  0.06397102  0.47858712  0.66795914    -0.27700
C281        C  0.09483004  0.48981890  0.65937913     0.18400
C282        C  0.11857025  0.46089629  0.75621659     0.12300
C283        C  0.05480875  0.43873895  0.77826332    -0.12000
H284        H  0.02821186  0.45382666  0.71429056     0.12600
C285        C  0.11165949  0.00896141  0.62027966    -0.22900
H286        H  0.13512216  0.99200904  0.68244885     0.08300
C287        C  0.12546472  0.43866225  0.74486128     0.04600
C288        C  0.14769940  0.43662247  0.76838775    -0.20100
C289        C  0.16330286  0.45638755  0.80291295    -0.12400
C290        C  0.15593084  0.97836673  0.81485026     0.13300
C291        C  0.13336950  0.98004386  0.79159267    -0.22800
C292        C  0.10966819  0.41746729  0.70736313    -0.05900
H293        H  0.15334981  0.41984405  0.75925770     0.14800
C294        C  0.17246998  0.00168872  0.84971164    -0.16100
H295        H  0.12835122  0.99743823  0.79961442     0.09200
H296        H  0.11995602  0.99694388  0.59972526     0.07000
H297        H  0.13111782  0.03000792  0.63215421     0.08200
H298        H  0.09874146  0.01558494  0.59917593     0.07300
H299        H  0.06637505  0.45219377  0.80785446     0.02100
H300        H  0.05663521  0.41830776  0.77801443     0.02600
H301        H  0.03082512  0.43185514  0.78062471     0.06100
H302        H  0.11715147  0.40092995  0.70349157     0.05100
H303        H  0.11415313  0.43005349  0.67594217    -0.00700
H304        H  0.08528515  0.40514948  0.71363748     0.00800
H305        H  0.18150591  0.02424184  0.83496280     0.04500
H306        H  0.19157027  0.00074766  0.86411769     0.06400
H307        H  0.15688084  0.99905840  0.87673303     0.07300
C308        C  0.33276729  0.47510115  0.43957768    -0.22300
C309        C  0.32928814  0.46039954  0.39940827     0.09600
C310        C  0.34788085  0.44850513  0.38971006     0.10000
C311        C  0.36967926  0.45173654  0.42051049    -0.17200
C312        C  0.37337335  0.46676381  0.46065141    -0.27700
C313        C  0.35415351  0.47804444  0.47063018     0.18400
C314        C  0.30598592  0.45807254  0.36834234     0.12300
C315        C  0.34450109  0.43224311  0.34710770    -0.12000
H316        H  0.38396909  0.44259233  0.41320368     0.12600
C317        C  0.35432637  0.99195923  0.51442298    -0.22900
H318        H  0.31816318  0.98384065  0.44717864     0.08300
C319        C  0.27556744  0.43673483  0.37443182     0.04600
C320        C  0.25395676  0.43780656  0.34763554    -0.20100
C321        C  0.26204534  0.45958280  0.31457749    -0.12400
C322        C  0.29269982  0.48062222  0.30794561     0.13300
C323        C  0.31419930  0.47939916  0.33475227    -0.22800
C324        C  0.26597384  0.41284814  0.40920963    -0.05900
H325        H  0.23058195  0.42155138  0.35250633     0.14800
C326        C  0.30370221  0.00567744  0.27476397    -0.16100
H327        H  0.33755293  0.49594922  0.33048630     0.09200
H328        H  0.33177079  0.97952099  0.52946668     0.07000
H329        H  0.36014631  0.01548463  0.50917217     0.08200
H330        H  0.37007047  0.99157679  0.53868972     0.07300
H331        H  0.34845728  0.44740849  0.31878444     0.02100
H332        H  0.32161587  0.41269718  0.34476003     0.02600
H333        H  0.36062219  0.42413846  0.34482689     0.06100
H334        H  0.24143416  0.39763590  0.40917772     0.05100
H335        H  0.27259766  0.42319346  0.44235407    -0.00700
H336        H  0.27673972  0.39931561  0.40297541     0.00800
H337        H  0.31726781  0.02732902  0.29190356     0.04500
H338        H  0.28562264  0.50694469  0.25737117     0.06400
H339        H  0.31791275  0.50304120  0.24988661     0.07300
C340        C  0.12615491  0.44427762  0.35607911    -0.22300
C341        C  0.12538630  0.47088470  0.35233168     0.09600
C342        C  0.14665536  0.49412765  0.32540654     0.10000
C343        C  0.16789133  0.48999565  0.30238910    -0.17200
C344        C  0.16910569  0.46364973  0.30706561    -0.27700
C345        C  0.14770589  0.44034002  0.33385884     0.18400
C346        C  0.10463017  0.47504838  0.38142165     0.12300
C347        C  0.14797360  0.02380251  0.32278683    -0.12000
H348        H  0.18439612  0.50787315  0.28198015     0.12600
C349        C  0.14675259  0.41097013  0.33955105    -0.22900
H350        H  0.11022606  0.42666799  0.37742333     0.08300
C351        C  0.07637544  0.46961220  0.36732642     0.04600
C352        C  0.05722205  0.47221043  0.39778719    -0.20100
C353        C  0.06535759  0.47954641  0.44237360    -0.12400
C354        C  0.09394741  0.48489336  0.45611079     0.13300
C355        C  0.11306767  0.48285359  0.42534743    -0.22800
C356        C  0.06620457  0.96056300  0.32046032    -0.05900
H357        H  0.03552947  0.96785340  0.38684079     0.14800
C358        C  0.10474779  0.49219783  0.50316227    -0.16100
H359        H  0.13470942  0.48669121  0.43586552     0.09200
H360        H  0.12458810  0.39252522  0.32907843     0.07000
H361        H  0.15021724  0.40775558  0.37483588     0.08200
H362        H  0.16386235  0.40936655  0.31980269     0.07300
H363        H  0.15165161  0.53380745  0.35604481     0.02100
H364        H  0.12679706  0.02090302  0.30940535     0.02600
H365        H  0.16637478  0.03972037  0.30103783     0.06100
H366        H  0.04310917  0.95608622  0.31534643     0.05100
H367        H  0.06671357  0.43993344  0.31211349    -0.00700
H368        H  0.08103558  0.97852629  0.29736826     0.00800
H369        H  0.12792533  0.49662266  0.50698138     0.04500
H370        H  0.09038583  0.47308400  0.52502661     0.06400
H371        H  0.10454295  0.51246181  0.51424144     0.07300
C372        C  0.24133914  0.46566769  0.00580213    -0.22300
C373        C  0.21458126  0.44976467  0.02915360     0.09600
C374        C  0.18754681  0.43335272  0.00599275     0.10000
C375        C  0.18784876  0.43369864  0.95966563    -0.17200
C376        C  0.21459595  0.45008589  0.93588815    -0.27700
C377        C  0.24181245  0.46610788  0.95948900     0.18400
C378        C  0.21538512  0.45212081  0.07786699     0.12300
C379        C  0.15842323  0.41573426  0.03023334    -0.12000
H380        H  0.16699612  0.42130101  0.94190466     0.12600
C381        C  0.27132527  0.98492563  0.93659425    -0.22900
H382        H  0.26193936  0.97833408  0.02408693     0.08300
C383        C  0.22232520  0.43421101  0.10475187     0.04600
C384        C  0.22326228  0.43777682  0.15076484    -0.20100
C385        C  0.21790679  0.45920378  0.17039973    -0.12400
C386        C  0.21250603  0.47820776  0.14301568     0.16000
C387        C  0.21063269  0.47389843  0.09719521    -0.22800
C388        C  0.22858708  0.41132285  0.08481424    -0.05900
H389        H  0.22778060  0.42345572  0.17157208     0.14800
C390        C  0.21023457  0.00423653  0.16037128    -0.16100
H391        H  0.20625796  0.98823360  0.07617856     0.09200
H392        H  0.27713971  0.97052129  0.91694996     0.07000
H393        H  0.28972752  0.99732651  0.96049532     0.08200
H394        H  0.27015855  0.00156647  0.91481210     0.07300
H395        H  0.15427032  0.43091210  0.05095937     0.02100
H396        H  0.15929728  0.39879374  0.05167771     0.02600
H397        H  0.13936523  0.40396769  0.00715244     0.06100
H398        H  0.23349370  0.39906684  0.11049332     0.05100
H399        H  0.24818441  0.42247758  0.06252717    -0.00700
H400        H  0.20893352  0.39487641  0.06563607     0.00800
H401        H  0.22667505  0.02491344  0.14296942     0.04500
H402        H  0.21521870  0.00832662  0.19600916     0.06400
H403        H  0.18750938  0.00047704  0.15411821     0.07300
C404        C  0.31206563  0.34036603  0.74612575    -0.22300
C405        C  0.34062280  0.34619468  0.75800808     0.09600
C406        C  0.34403465  0.33101895  0.79421287     0.10000
C407        C  0.31856272  0.30918767  0.81638332    -0.17200
C408        C  0.28980110  0.30173607  0.80241270    -0.27700
C409        C  0.28654087  0.31806966  0.76751180     0.18400
C410        C  0.36606492  0.36581153  0.72898670     0.12300
C411        C  0.37441852  0.33698669  0.80819686    -0.12000
H412        H  0.32106797  0.29685869  0.84338522     0.12600
C413        C  0.25632660  0.31228344  0.75278341    -0.22900
H414        H  0.30972922  0.35245323  0.71861926     0.08300
C415        C  0.36945755  0.35558948  0.68752762     0.04600
C416        C  0.39262765  0.37506266  0.65960494    -0.20100
C417        C  0.41304051  0.40453613  0.67220581    -0.12400
C418        C  0.41043841  0.41431724  0.71486578     0.13300
C419        C  0.38672083  0.39485715  0.74249066    -0.22800
C420        C  0.34875437  0.32395493  0.67283563    -0.05900
H421        H  0.39473897  0.36711549  0.62750506     0.14800
C422        C  0.43200345  0.44521567  0.73135745    -0.16100
H423        H  0.38406723  0.40236551  0.77463033     0.09200
H424        H  0.25817250  0.32848024  0.72714429     0.07000
H425        H  0.24406201  0.31432570  0.78132363     0.08200
H426        H  0.24333315  0.28964090  0.73837194     0.07300
H427        H  0.38836083  0.36066563  0.81823206     0.02100
H428        H  0.38540107  0.33234416  0.78036049     0.02600
H429        H  0.37307054  0.32275432  0.83656708     0.06100
H430        H  0.35516059  0.31938703  0.64006048     0.05100
H431        H  0.32561129  0.31973058  0.67028578    -0.00700
H432        H  0.34941808  0.30818020  0.69703851     0.00800
H433        H  0.42604913  0.44911046  0.76490220     0.04500
H434        H  0.43191870  0.46209282  0.70890774     0.06400
H435        H  0.45479071  0.44835116  0.73310061     0.07300
C436        C  0.18192310  0.17354905  0.72320174    -0.22300
C437        C  0.15196781  0.15976022  0.73590950     0.09600
C438        C  0.14411426  0.16846064  0.77538778     0.10000
C439        C  0.16656497  0.19115398  0.80119535    -0.17200
C440        C  0.19665212  0.20552477  0.78812912    -0.27700
C441        C  0.20441449  0.19629846  0.74869919     0.18400
C442        C  0.12934658  0.13619708  0.70706994     0.12300
C443        C  0.11205664  0.15386690  0.78999421    -0.12000
H444        H  0.16054618  0.19799156  0.83142764     0.12600
C445        C  0.23635559  0.20940721  0.73391245    -0.22900
H446        H  0.18767962  0.16642211  0.69300296     0.08300
C447        C  0.11721578  0.14332619  0.67060922     0.04600
C448        C  0.09736804  0.12046244  0.64247835    -0.20100
C449        C  0.08935370  0.09051040  0.64974215    -0.12400
C450        C  0.10063982  0.08335661  0.68768361     0.13300
C451        C  0.12084433  0.10638268  0.71535715    -0.22800
C452        C  0.12556542  0.17513210  0.66107768    -0.05900
H453        H  0.08873414  0.12618375  0.61382343     0.14800
C454        C  0.09124036  0.05193192  0.70134837    -0.16100
H455        H  0.12994336  0.10102627  0.74386919     0.09200
H456        H  0.24578031  0.23319684  0.72472296     0.07000
H457        H  0.23826400  0.19772908  0.70449218     0.08200
H458        H  0.24980771  0.20736928  0.76076964     0.07300
H459        H  0.10303381  0.12957868  0.79481137     0.02100
H460        H  0.09860116  0.15722907  0.76454839     0.02600
H461        H  0.10969322  0.16333226  0.82155954     0.06100
H462        H  0.11398324  0.17684192  0.63133633     0.05100
H463        H  0.14995776  0.18884530  0.65536065    -0.00700
H464        H  0.11935558  0.18436187  0.68951733     0.00800
H465        H  0.11066570  0.04845413  0.69989079     0.04500
H466        H  0.07310986  0.03509719  0.68074806     0.06400
H467        H  0.08270633  0.04809160  0.73574777     0.07300
C468        C  0.36689856  0.34967440  0.42997413    -0.22300
C469        C  0.36975441  0.35649443  0.38496896     0.09600
C470        C  0.39467739  0.38304059  0.36979650     0.10000
C471        C  0.41588463  0.40261979  0.40037767    -0.17200
C472        C  0.41277100  0.39634587  0.44596538    -0.27700
C473        C  0.38795071  0.36898658  0.46072034     0.18400
C474        C  0.34538227  0.33585135  0.35514046     0.12300
C475        C  0.39893181  0.39053423  0.32135762    -0.12000
H476        H  0.43477132  0.42319783  0.38852302     0.12600
C477        C  0.38286302  0.35964307  0.50862687    -0.22900
H478        H  0.34762893  0.32918397  0.44116538     0.08300
C479        C  0.34131831  0.30758973  0.34405685     0.04600
C480        C  0.31591350  0.28746202  0.32010007    -0.20100
C481        C  0.29452221  0.29493453  0.30708814    -0.12400
C482        C  0.29885056  0.32343478  0.31746702     0.13300
C483        C  0.32428169  0.34354282  0.34135137    -0.22800
C484        C  0.36371544  0.29867555  0.35764972    -0.05900
H485        H  0.31248754  0.26558603  0.31194755     0.14800
C486        C  0.27673309  0.33300920  0.30514659    -0.16100
H487        H  0.32722260  0.36506986  0.35049554     0.09200
H488        H  0.36292966  0.33718928  0.51321401     0.07000
H489        H  0.37909820  0.37554416  0.52817423     0.08200
H490        H  0.40232601  0.35864886  0.52177840     0.07300
H491        H  0.37999073  0.39258816  0.30856830     0.02100
H492        H  0.40008637  0.37260387  0.30305838     0.02600
H493        H  0.41981760  0.41192489  0.31492036     0.06100
H494        H  0.35747597  0.27609144  0.34539931     0.05100
H495        H  0.36517474  0.29839842  0.39415466    -0.00700
H496        H  0.38595684  0.31483157  0.34397041     0.00800
H497        H  0.26846643  0.33843974  0.33552616     0.04500
H498        H  0.25718737  0.31559618  0.28697689     0.06400
H499        H  0.28782817  0.35322696  0.28397247     0.07300
C500        C  0.15740246  0.15114201  0.32335000    -0.22300
C501        C  0.15237096  0.15736932  0.36632220     0.09600
C502        C  0.16953083  0.18652293  0.38312217     0.10000
C503        C  0.19131055  0.20898969  0.35628959    -0.17200
C504        C  0.19659966  0.20299501  0.31303244    -0.27700
C505        C  0.17933134  0.17347672  0.29640663     0.18400
C506        C  0.13054716  0.13260696  0.39444682     0.12300
C507        C  0.16514366  0.19375781  0.42966206    -0.12000
H508        H  0.20436640  0.23138969  0.36931587     0.12600
C509        C  0.18453767  0.16477675  0.25125411    -0.22900
H510        H  0.14437039  0.12849018  0.31115488     0.08300
C511        C  0.10050850  0.12520412  0.39723958     0.04600
C512        C  0.08152836  0.10328787  0.42749255    -0.20100
C513        C  0.09157936  0.08775186  0.45412399    -0.12400
C514        C  0.12167645  0.09445682  0.44931401     0.13300
C515        C  0.14062989  0.11690079  0.41977728    -0.22800
C516        C  0.08862057  0.14055389  0.36838760    -0.05900
H517        H  0.05876470  0.09857574  0.43060519     0.14800
C518        C  0.13468778  0.07897841  0.47562045    -0.16100
H519        H  0.16375985  0.12266610  0.41680544     0.09200
H520        H  0.17860717  0.17607293  0.22539183     0.07000
H521        H  0.17060182  0.14038333  0.24552896     0.08200
H522        H  0.20824829  0.17086719  0.24776256     0.07300
H523        H  0.16958512  0.18005181  0.45330148     0.02100
H524        H  0.14188153  0.18890024  0.43408411     0.02600
H525        H  0.18040242  0.21762904  0.43765431     0.06100
H526        H  0.06442963  0.13152455  0.37371762     0.05100
H527        H  0.09191855  0.13712090  0.33316036    -0.00700
H528        H  0.10052440  0.16482346  0.37554656     0.00800
H529        H  0.12293528  0.05493836  0.46712015     0.04500
H530        H  0.13279595  0.08203240  0.51148530     0.06400
H531        H  0.15869182  0.08799135  0.46822827     0.07300
C532        C  0.24485329  0.27295814  0.09746611    -0.22300
C533        C  0.23614535  0.24553530  0.07712957     0.09600
C534        C  0.22857512  0.22017942  0.10321522     0.10000
C535        C  0.22988589  0.22284504  0.14929903    -0.17200
C536        C  0.23885335  0.25034247  0.16997166    -0.27700
C537        C  0.24602216  0.27570756  0.14360353     0.18400
C538        C  0.23594024  0.24416611  0.02837021     0.12300
C539        C  0.21949209  0.19044962  0.08238804    -0.12000
H540        H  0.22448708  0.20341840  0.16933270     0.12600
C541        C  0.25388526  0.30567434  0.16248579    -0.22900
H542        H  0.25049227  0.29232325  0.07710763     0.08300
C543        C  0.21069770  0.23873894  0.00353128     0.04600
C544        C  0.21218300  0.23893851  0.95724018    -0.20100
C545        C  0.23843016  0.24467209  0.93541907    -0.12400
C546        C  0.26331331  0.24890149  0.96055599     0.13300
C547        C  0.26180188  0.24893408  0.00672581    -0.22800
C548        C  0.18245062  0.23323645  0.02591029    -0.05900
H549        H  0.19311069  0.23555362  0.93800105     0.14800
C550        C  0.29147220  0.25254666  0.94013190    -0.16100
H551        H  0.28094562  0.25258482  0.02609010     0.09200
H552        H  0.23872805  0.31291499  0.14849610     0.07000
H553        H  0.27718180  0.32236195  0.15345113     0.08200
H554        H  0.25155187  0.30549775  0.19876152     0.07300
H555        H  0.23787068  0.19235313  0.06130994     0.02100
H556        H  0.19931273  0.18321764  0.06179631     0.02600
H557        H  0.21434039  0.17292046  0.10759923     0.06100
H558        H  0.16485230  0.22948002  0.00163187     0.05100
H559        H  0.18703576  0.25281949  0.04639791    -0.00700
H560        H  0.17377171  0.21319885  0.04736360     0.00800
H561        H  0.31045872  0.27502531  0.94800263     0.04500
H562        H  0.29004841  0.24959442  0.90388888     0.06400
H563        H  0.29614275  0.23544643  0.95396501     0.07300
C564        C  0.22073228  0.72775304  0.28712127     0.80300
N565        N  0.24526648  0.74958147  0.30787320    -0.78000
C566        C  0.26751294  0.77210098  0.28434023     0.82800
N567        N  0.26536059  0.77274553  0.23971898    -0.77900
C568        C  0.24073289  0.75127279  0.21872824     0.82900
N569        N  0.21869918  0.72887544  0.24261402    -0.79600
C570        C  0.21942881  0.72948927  0.81650699     0.80300
N571        N  0.24236281  0.75427687  0.79799362    -0.78000
C572        C  0.26387026  0.77593245  0.82335040     0.82800
N573        N  0.26260917  0.77248478  0.86782085    -0.77900
C574        C  0.23970640  0.74789335  0.88691525     0.82900
N575        N  0.21794096  0.72658473  0.86120393    -0.79600
C576        C  0.23802225  0.95982114  0.28825821     0.80300
N577        N  0.23866493  0.95915772  0.24345175    -0.78000
C578        C  0.21724147  0.96036806  0.21917684     0.82800
N579        N  0.19466554  0.96158282  0.24003474    -0.77900
C580        C  0.19345033  0.96165743  0.28477746     0.82900
N581        N  0.21516156  0.96074455  0.30882671    -0.79600
C582        C  0.23444182  0.95655404  0.81653482     0.80300
N583        N  0.23530278  0.95374795  0.86099902    -0.78000
C584        C  0.21294716  0.95153544  0.88702710     0.82800
N585        N  0.18933037  0.95183435  0.86801873    -0.77900
C586        C  0.18814124  0.95450911  0.82357426     0.82900
N587        N  0.21052889  0.95643375  0.79795945    -0.79600
C588        C  0.49716098  0.74273690  0.28992611     0.80300
N589        N  0.50114622  0.74489273  0.24554556    -0.78000
C590        C  0.50149286  0.72273891  0.22219025     0.82800
N591        N  0.49783745  0.69813400  0.24405598    -0.77900
C592        C  0.49365696  0.69551505  0.28849274     0.82900
N593        N  0.49377399  0.71813200  0.31130273    -0.79600
C594        C  0.50442675  0.74513344  0.82106830     0.80300
N595        N  0.50577159  0.74611515  0.86587243    -0.78000
C596        C  0.50817356  0.72490225  0.88898740     0.82800
N597        N  0.50865501  0.70227835  0.86709865    -0.77900
C598        C  0.50803031  0.70149205  0.82232072     0.82900
N599        N  0.50600115  0.72299230  0.79951347    -0.79600
O600        O  0.41501461  0.49465853  0.50737320    -0.88100
C601        C  0.07034878  0.56828979  0.61588159     1.12000
O602        O  0.45533868  0.97500046  0.55487205    -1.35900
O603        O  0.04848400  0.56866725  0.50015461    -0.89500
O604        O  0.39489631  0.94500697  0.50504782    -0.90200
O605        O  0.45691121  0.94286115  0.46373014    -0.79000
O606        O  0.48191049  0.53242731  0.51067433    -1.01100
C607        C  0.04340336  0.98018291  0.47397906     1.22000
O608        O  0.48976781  0.94740347  0.55640085    -1.36000
Mn609      Mn  0.48809438  0.97826382  0.60238949     1.82100
O610        O  0.01917716  0.97785308  0.46166260    -0.78100
O611        O  0.07692920  0.54778448  0.50541434    -0.87500
C612        C  0.04358398  0.98099519  0.63568022     1.13100
C613        C  0.07095478  0.56658656  0.48835744     1.07800
O614        O  0.45860028  0.94794282  0.64905011    -0.79000
O615        O  0.01734287  0.50950756  0.55330393    -1.32700
O616        O  0.43110954  0.91795652  0.59982529    -0.98200
C617        C  0.49245094  0.89235371  0.49571375     1.06600
Mn618      Mn  0.06069461  0.51506694  0.55464547     1.48600
O619        O  0.46781256  0.88626446  0.51333443    -0.87400
Mn620      Mn  0.41454266  0.93347434  0.55602075     1.49600
O621        O  0.41793531  0.49703416  0.60560077    -0.91300
C622        C  0.48181184  0.52713888  0.47140802     1.19700
C623        C  0.39779525  0.97136103  0.61871703     1.11800
Mn624      Mn  0.48712782  0.97625910  0.50698296     1.81000
O625        O  0.04822908  0.98164186  0.59625203    -0.96500
Mn626      Mn  0.44958040  0.51287333  0.55436628     1.49300
C627        C  0.39610494  0.96901812  0.49251569     1.08300
Mn628      Mn  0.03107392  0.94802903  0.55527921     1.49900
C629        C  0.49527878  0.89631678  0.62382457     1.11200
O630        O  0.43131665  0.91568764  0.51685415    -1.02300
O631        O  0.07618609  0.54822110  0.60394197    -0.91900
C632        C  0.43487328  0.91901919  0.47709100     1.22500
O633        O  0.04775916  0.98141187  0.51356388    -1.02700
O634        O  0.04977234  0.57139120  0.59840164    -0.90100
O635        O  0.01885974  0.91610166  0.60494367    -0.89700
O636        O  0.39445986  0.94717813  0.60289980    -0.89700
Mn637      Mn  0.01650515  0.55026429  0.55069077     1.47900
O638        O  0.02011443  0.98039536  0.64750260    -0.78200
C639        C  0.43543650  0.92428847  0.63890322     1.15600
O640        O  0.48418579  0.50505143  0.46066469    -0.76900
O641        O  0.48714911  0.50911140  0.64564661    -0.76500
Mn642      Mn  0.45174398  0.90407398  0.56039924     1.51100
O643        O  0.01718468  0.91508107  0.50648531    -0.88900
O644        O  0.48403626  0.53497729  0.59399592    -0.96400
O645        O  0.46920949  0.89019147  0.61205581    -0.91400
C646        C  0.48611081  0.53166410  0.63354761     1.13400
C647        C  0.50611005  0.58285466  0.73417340    -0.22300
C648        C  0.49615021  0.60215780  0.72028735     0.09600
C649        C  0.48178506  0.59745076  0.67915126     0.10000
C650        C  0.47852278  0.57407229  0.65211782    -0.17200
C651        C  0.48875814  0.55474884  0.66543201    -0.27700
C652        C  0.50230207  0.55896281  0.70760245     0.18400
C653        C  0.50071858  0.62714922  0.74926867     0.12300
C654        C  0.46955738  0.61691798  0.66402173    -0.12000
H655        H  0.46773561  0.57080953  0.62032315     0.12600
C656        C  0.01335492  0.53893483  0.72472974    -0.22900
H657        H  0.01694461  0.58657452  0.76601408     0.08300
C658        C  0.48191216  0.62253244  0.78564462     0.04600
C659        C  0.48565333  0.64721144  0.81002012    -0.20100
C660        C  0.50759686  0.67639263  0.79856081    -0.12400
C661        C  0.52726343  0.68084247  0.76320455     0.13300
C662        C  0.52343786  0.65613831  0.73888904    -0.22800
C663        C  0.45732883  0.59167185  0.79777943    -0.05900
H664        H  0.47067022  0.64380626  0.83718793     0.14800
C665        C  0.05289808  0.71109820  0.75077257    -0.16100
H666        H  0.03815073  0.65951667  0.71132619     0.09200
H667        H  0.49435711  0.51583164  0.72854140     0.07000
H668        H  0.02429580  0.54630853  0.75743584     0.08200
H669        H  0.02992881  0.53913475  0.70147965     0.07300
H670        H  0.48789993  0.64039404  0.66096228     0.02100
H671        H  0.45295425  0.61569724  0.68830841     0.02600
H672        H  0.45837415  0.60979005  0.63144205     0.06100
H673        H  0.44425386  0.59204419  0.82652981     0.05100
H674        H  0.46696771  0.57744151  0.80644220    -0.00700
H675        H  0.44185855  0.58158604  0.76946570     0.00800
H676        H  0.07400093  0.71049727  0.75171938     0.04500
H677        H  0.05567903  0.72905800  0.77341747     0.06400
H678        H  0.04951277  0.71689795  0.71680182     0.07300
C679        C  0.48282584  0.84814120  0.72595540    -0.22300
C680        C  0.50334203  0.83860444  0.71796215     0.09600
C681        C  0.52283514  0.85018865  0.68163865     0.10000
C682        C  0.02036559  0.86997648  0.65274261    -0.17200
C683        C  0.49881919  0.87850103  0.65921201    -0.27700
C684        C  0.48077153  0.86852250  0.69760786     0.18400
C685        C  0.50284446  0.81503562  0.74623270     0.12300
C686        C  0.04571911  0.84104780  0.67277541    -0.12000
H687        H  0.03463954  0.87792427  0.62389725     0.12600
C688        C  0.46010757  0.87967922  0.71075409    -0.22900
H689        H  0.46836446  0.83965484  0.75456806     0.08300
C690        C  0.51988384  0.82171326  0.78514939     0.04600
C691        C  0.51939578  0.79835395  0.80951184    -0.20100
C692        C  0.50206447  0.76846122  0.79592597    -0.12400
C693        C  0.48387389  0.76186066  0.75786117     0.13300
C694        C  0.48506869  0.78531449  0.73309493    -0.22800
C695        C  0.03876369  0.85344686  0.80051432    -0.05900
H696        H  0.03314874  0.80352743  0.83875297     0.14800
C697        C  0.46193916  0.73054341  0.74313825    -0.16100
H698        H  0.47162421  0.78035834  0.70351559     0.09200
H699        H  0.46508034  0.88817566  0.74513128     0.07000
H700        H  0.43661980  0.86119096  0.70903075     0.08200
H701        H  0.46292063  0.89845235  0.68996118     0.07300
H702        H  0.03444709  0.81660333  0.66724740     0.02100
H703        H  0.06098052  0.84692180  0.70142817     0.02600
H704        H  0.05937342  0.85241781  0.64316208     0.06100
H705        H  0.05076261  0.85483279  0.83157666     0.05100
H706        H  0.02440007  0.86330591  0.80658955    -0.00700
H707        H  0.05557353  0.86679534  0.77496442     0.00800
H708        H  0.43970895  0.72838364  0.73825899     0.04500
H709        H  0.45866792  0.71325386  0.76753436     0.06400
H710        H  0.46941431  0.72587566  0.71135225     0.07300
C711        C  0.47055634  0.61523928  0.32052886    -0.22300
C712        C  0.48567290  0.61983107  0.36062771     0.09600
C713        C  0.00378883  0.64926169  0.37653235     0.10000
C714        C  0.00566411  0.67330721  0.35233878    -0.17200
C715        C  0.48996140  0.66876644  0.31241754    -0.27700
C716        C  0.47194923  0.63917567  0.29655408     0.18400
C717        C  0.48193495  0.59360387  0.38602434     0.12300
C718        C  0.02126007  0.65530613  0.41880207    -0.12000
H719        H  0.01961086  0.69583013  0.36451066     0.12600
C720        C  0.45256921  0.63150828  0.25603898    -0.22900
H721        H  0.45671110  0.59262880  0.30857673     0.08300
C722        C  0.46229104  0.58230473  0.42230171     0.04600
C723        C  0.46218426  0.56001237  0.44877009    -0.20100
C724        C  0.47997511  0.54744174  0.43846903    -0.12400
C725        C  0.49731306  0.55663252  0.39939830     0.13300
C726        C  0.49855836  0.58009850  0.37415187    -0.22800
C727        C  0.44111224  0.59342179  0.43268299    -0.05900
H728        H  0.44818672  0.55243891  0.47790995     0.14800
C729        C  0.51509160  0.54243826  0.38477448    -0.16100
H730        H  0.51284011  0.58823516  0.34533046     0.09200
H731        H  0.42935172  0.61432642  0.26464992     0.07000
H732        H  0.46092900  0.62234463  0.23026056     0.08200
H733        H  0.45132649  0.65059408  0.24219055     0.07300
H734        H  0.03681325  0.64657382  0.41629791     0.02100
H735        H  0.00603808  0.64431378  0.44705060     0.02600
H736        H  0.03456364  0.67955778  0.42599323     0.06100
H737        H  0.42689630  0.58176183  0.46171205     0.05100
H738        H  0.42624955  0.58936764  0.40396798    -0.00700
H739        H  0.95417277  0.61810653  0.44003640     0.00800
H740        H  0.49975956  0.51851339  0.37730684     0.04500
H741        H  0.53077571  0.54426799  0.41108434     0.06400
H742        H  0.02793275  0.55282449  0.35422347     0.07300
C743        C  0.47442470  0.82242322  0.43012123    -0.22300
C744        C  0.49691192  0.83424349  0.39815707     0.09600
C745        C  0.01703155  0.86522335  0.39679914     0.10000
C746        C  0.01472843  0.88368686  0.42854654    -0.17200
C747        C  0.49252468  0.87188977  0.46140739    -0.27700
C748        C  0.47183616  0.84070622  0.46176347     0.18400
C749        C  0.49958556  0.81319238  0.36815922     0.12300
C750        C  0.04096018  0.87868034  0.36208649    -0.12000
H751        H  0.03041253  0.90746841  0.42772894     0.12600
C752        C  0.44766742  0.82609187  0.49616397    -0.22900
H753        H  0.45912795  0.79852411  0.43075358     0.08300
C754        C  0.01581466  0.79920449  0.38084119     0.04600
C755        C  0.01473831  0.77656201  0.35427342    -0.20100
C756        C  0.49765962  0.76739943  0.31531672    -0.12400
C757        C  0.48175914  0.78189860  0.30232691     0.13300
C758        C  0.48327540  0.80485513  0.32879195    -0.22800
C759        C  0.03384812  0.80788463  0.42277354    -0.05900
H760        H  0.02714278  0.76577024  0.36410777     0.14800
C761        C  0.46154219  0.77288513  0.26260346    -0.16100
H762        H  0.47059567  0.81549011  0.31962984     0.09200
H763        H  0.43497334  0.80142559  0.49267275     0.07000
H764        H  0.43146568  0.83400078  0.49266440     0.08200
H765        H  0.45764518  0.83128695  0.52968734     0.07300
H766        H  0.53066220  0.87431705  0.32891516     0.02100
H767        H  0.05560708  0.86882712  0.36415592     0.02600
H768        H  0.05507603  0.90312952  0.36643242     0.06100
H769        H  0.04525047  0.79480473  0.42771380     0.05100
H770        H  0.01905459  0.80386559  0.45154695    -0.00700
H771        H  0.05112907  0.83187933  0.42155942     0.00800
H772        H  0.43900612  0.76802344  0.27302551     0.04500
H773        H  0.45851325  0.75258980  0.24601171     0.06400
H774        H  0.47054523  0.79150418  0.23838087     0.07300
C775        C  0.51816479  0.75099146  0.10266305    -0.22300
C776        C  0.50602313  0.72401748  0.07966322     0.09600
C777        C  0.49312353  0.69691032  0.10319091     0.10000
C778        C  0.49243623  0.69737015  0.14944855    -0.17200
C779        C  0.50405582  0.72433501  0.17304647    -0.27700
C780        C  0.51726619  0.75164706  0.14897429     0.18400
C781        C  0.50662923  0.72470008  0.03079199     0.12300
C782        C  0.47960758  0.66748289  0.07936932    -0.12000
H783        H  0.48214021  0.67634601  0.16716719     0.12600
C784        C  0.03096911  0.78174642  0.17115219    -0.22900
H785        H  0.02813914  0.77172434  0.08401572     0.08300
C786        C  0.48534534  0.72803329  0.00629520     0.04600
C787        C  0.48681648  0.72862394  0.96002815    -0.20100
C788        C  0.50898705  0.72577606  0.93773193    -0.12400
C789        C  0.03076636  0.72312632  0.96246209     0.13300
C790        C  0.02907811  0.72232834  0.00870230    -0.22800
C791        C  0.46081565  0.73043125  0.02903840    -0.05900
H792        H  0.47020120  0.73070791  0.94111089     0.14800
C793        C  0.05673639  0.72228715  0.94162565    -0.16100
H794        H  0.04563374  0.72021829  0.02777180     0.09200
H795        H  0.51337293  0.78429742  0.18803652     0.07000
H796        H  0.04195593  0.80035900  0.14705361     0.08200
H797        H  0.04815967  0.78408032  0.19521532     0.07300
H798        H  0.49692185  0.66637574  0.05930547     0.02100
H799        H  0.46144238  0.66515291  0.05734615     0.02600
H800        H  0.47007517  0.64832924  0.10268663     0.06100
H801        H  0.44575615  0.73246758  0.00500064     0.05100
H802        H  0.47056573  0.75042549  0.05057427    -0.00700
H803        H  0.44727032  0.71021576  0.04946243     0.00800
H804        H  0.07788644  0.74041364  0.95567586     0.04500
H805        H  0.05811700  0.72566044  0.90545466     0.06400
H806        H  0.05514049  0.70052667  0.94890936     0.07300
C807        C  0.29368018  0.48066302  0.72652387    -0.22300
C808        C  0.30594770  0.96267754  0.73637642     0.09600
C809        C  0.29541100  0.94341142  0.77316047     0.10000
C810        C  0.27231250  0.94220073  0.79893787    -0.17200
C811        C  0.25957463  0.95992176  0.78887127    -0.27700
C812        C  0.27109907  0.48008668  0.75274585     0.18400
C813        C  0.32960082  0.96419050  0.70725464     0.12300
C814        C  0.30844193  0.92403636  0.78492443    -0.12000
H815        H  0.26383944  0.92697654  0.82673022     0.12600
C816        C  0.26146369  0.50241062  0.74178941    -0.22900
H817        H  0.30223422  0.49573518  0.69852279     0.08300
C818        C  0.32243299  0.94560098  0.67004425     0.04600
C819        C  0.34540059  0.94812823  0.64276555    -0.20100
C820        C  0.37547836  0.96896938  0.65151337    -0.12400
C821        C  0.38266335  0.98720795  0.68955844     0.13300
C822        C  0.35952935  0.98476595  0.71662814    -0.22800
C823        C  0.29049076  0.92341959  0.65877769    -0.05900
H824        H  0.33973226  0.93421047  0.61363173     0.14800
C825        C  0.41420179  0.50858318  0.70373525    -0.16100
H826        H  0.36487666  0.49879559  0.74558981     0.09200
H827        H  0.24927027  0.49638844  0.70991918     0.07000
H828        H  0.28146035  0.52496692  0.73859180     0.08200
H829        H  0.24740471  0.50431459  0.76749535     0.07300
H830        H  0.33264968  0.93825537  0.79170021     0.02100
H831        H  0.30530188  0.90876760  0.75720179     0.02600
H832        H  0.29767895  0.91024948  0.81469119     0.06100
H833        H  0.28878282  0.91068308  0.62842686     0.05100
H834        H  0.27792164  0.93527795  0.65322772    -0.00700
H835        H  0.27997738  0.90724517  0.68624331     0.00800
H836        H  0.41843424  0.53180605  0.70240112     0.04500
H837        H  0.43096064  0.50703523  0.68325173     0.06400
H838        H  0.41751290  0.50343231  0.73815471     0.07300
C839        C  0.11170581  0.98373211  0.68923347    -0.22300
C840        C  0.09915517  0.96715200  0.72758642     0.09600
C841        C  0.06892683  0.95672542  0.73722351     0.10000
C842        C  0.05168829  0.96264491  0.70742725    -0.17200
C843        C  0.06397310  0.97859943  0.66797291    -0.27700
C844        C  0.09483120  0.98982746  0.65939108     0.18400
C845        C  0.11856615  0.96089665  0.75622185     0.12300
C846        C  0.05480756  0.93874889  0.77827541    -0.12000
H847        H  0.02821410  0.95384400  0.71430668     0.12600
C848        C  0.11165787  0.50895543  0.62026940    -0.22900
H849        H  0.13512351  0.49200674  0.68244011     0.08300
C850        C  0.12546442  0.93866714  0.74485437     0.04600
C851        C  0.14769938  0.93662569  0.76837722    -0.20100
C852        C  0.16329898  0.95638501  0.80291028    -0.12400
C853        C  0.15593824  0.47837364  0.81484198     0.13300
C854        C  0.13337756  0.48004986  0.79157994    -0.22800
C855        C  0.10967134  0.91747855  0.70734791    -0.05900
H856        H  0.15335282  0.91985104  0.75923872     0.14800
C857        C  0.17247990  0.50169988  0.84969678    -0.16100
H858        H  0.12836195  0.49744725  0.79959326     0.09200
H859        H  0.11996000  0.49694211  0.59971666     0.07000
H860        H  0.13111247  0.53000404  0.63214626     0.08200
H861        H  0.09873786  0.51557494  0.59916270     0.07300
H862        H  0.06637624  0.95220185  0.80786684     0.02100
H863        H  0.05662963  0.91831512  0.77802358     0.02600
H864        H  0.03082508  0.93186925  0.78063915     0.06100
H865        H  0.11715751  0.90094409  0.70346729     0.05100
H866        H  0.11415648  0.93007027  0.67593219    -0.00700
H867        H  0.08528792  0.90515693  0.71361971     0.00800
H868        H  0.18152075  0.52425129  0.83493952     0.04500
H869        H  0.19157662  0.50075530  0.86410980     0.06400
H870        H  0.15689117  0.49907732  0.87671445     0.07300
C871        C  0.33274957  0.97507737  0.43959633    -0.22300
C872        C  0.32928585  0.96039580  0.39941208     0.09600
C873        C  0.34789621  0.94852448  0.38969645     0.10000
C874        C  0.36969712  0.95175916  0.42049420    -0.17200
C875        C  0.37337589  0.96676697  0.46064903    -0.27700
C876        C  0.35413912  0.97802424  0.47064505     0.18400
C877        C  0.30598235  0.95806689  0.36834745     0.12300
C878        C  0.34453069  0.93228094  0.34708010    -0.12000
H879        H  0.38400011  0.94263189  0.41317532     0.12600
C880        C  0.35435324  0.49199993  0.51439468    -0.22900
H881        H  0.31819369  0.48388207  0.44714711     0.08300
C882        C  0.27556476  0.93672580  0.37443507     0.04600
C883        C  0.25395314  0.93779383  0.34763662    -0.20100
C884        C  0.26204016  0.95956878  0.31457719    -0.12400
C885        C  0.29269386  0.98061079  0.30794583     0.13300
C886        C  0.31419434  0.97939254  0.33475612    -0.22800
C887        C  0.26597321  0.91283796  0.40921064    -0.05900
H888        H  0.23057875  0.92153634  0.35250617     0.14800
C889        C  0.30370972  0.50569165  0.27476840    -0.16100
H890        H  0.33754700  0.99594436  0.33049079     0.09200
H891        H  0.33179537  0.47958424  0.52943595     0.07000
H892        H  0.36019636  0.51553045  0.50912474     0.08200
H893        H  0.37008503  0.49160570  0.53867297     0.07300
H894        H  0.34848163  0.94745398  0.31876929     0.02100
H895        H  0.32165076  0.91272762  0.34472005     0.02600
H896        H  0.36066195  0.92418936  0.34478873     0.06100
H897        H  0.24143424  0.89762143  0.40917430     0.05100
H898        H  0.27259241  0.92318161  0.44235659    -0.00700
H899        H  0.27674435  0.89931017  0.40297721     0.00800
H900        H  0.31727970  0.52734140  0.29191074     0.04500
H901        H  0.28561440  0.00692520  0.25735985     0.06400
H902        H  0.31790914  0.00302827  0.24988783     0.07300
C903        C  0.12612587  0.94425626  0.35601754    -0.22300
C904        C  0.12539258  0.97088510  0.35233127     0.09600
C905        C  0.14669315  0.99414610  0.32546514     0.10000
C906        C  0.16792773  0.99001321  0.30244376    -0.17200
C907        C  0.16910664  0.96364462  0.30706081    -0.27700
C908        C  0.14767574  0.94031731  0.33379465     0.18400
C909        C  0.10463824  0.97504516  0.38143063     0.12300
C910        C  0.14790195  0.52376595  0.32266312    -0.12000
H911        H  0.18445560  0.00790290  0.28208049     0.12600
C912        C  0.14668953  0.91092762  0.33942566    -0.22900
H913        H  0.11017337  0.92663289  0.37731566     0.08300
C914        C  0.07640154  0.96965426  0.36732240     0.04600
C915        C  0.05724872  0.97224989  0.39778705    -0.20100
C916        C  0.06536708  0.97954063  0.44238839    -0.12400
C917        C  0.09393871  0.98484118  0.45613889     0.13300
C918        C  0.11305799  0.98280290  0.42537261    -0.22800
C919        C  0.06616000  0.46046962  0.32048374    -0.05900
H920        H  0.03548856  0.46777804  0.38685215     0.14800
C921        C  0.10472242  0.99210076  0.50320388    -0.16100
H922        H  0.13468743  0.98660749  0.43589956     0.09200
H923        H  0.12452714  0.89250718  0.32889670     0.07000
H924        H  0.15011965  0.90766838  0.37470654     0.08200
H925        H  0.16380772  0.90933038  0.31968903     0.07300
H926        H  0.15170921  0.03380924  0.35619207     0.02100
H927        H  0.12670815  0.52083074  0.30929653     0.02600
H928        H  0.16628122  0.53967178  0.30087216     0.06100
H929        H  0.04305212  0.45595922  0.31538198     0.05100
H930        H  0.06673368  0.94001947  0.31205038    -0.00700
H931        H  0.08096448  0.47841949  0.29735446     0.00800
H932        H  0.12788513  0.99648423  0.50703408     0.04500
H933        H  0.09033011  0.97298143  0.52503981     0.06400
H934        H  0.10455298  0.01237840  0.51431065     0.07300
C935        C  0.24134268  0.96567801  0.00579540    -0.22300
C936        C  0.21458625  0.94976781  0.02914844     0.09600
C937        C  0.18755118  0.93335577  0.00598954     0.10000
C938        C  0.18785123  0.93370158  0.95966226    -0.17200
C939        C  0.21459733  0.95009313  0.93588347    -0.27700
C940        C  0.24181350  0.96612232  0.95948215     0.18400
C941        C  0.21539150  0.95211963  0.07786214     0.12300
C942        C  0.15842802  0.91573836  0.03023185    -0.12000
H943        H  0.16699894  0.92130177  0.94190321     0.12600
C944        C  0.27132755  0.48489729  0.93660296    -0.22900
H945        H  0.26193615  0.47832086  0.02409538     0.08300
C946        C  0.22233414  0.93420896  0.10474105     0.04600
C947        C  0.22326534  0.93776653  0.15075559    -0.20100
C948        C  0.21790478  0.95918836  0.17039706    -0.12400
C949        C  0.21250708  0.97819677  0.14301825     0.16000
C950        C  0.21063604  0.97389303  0.09719721    -0.22800
C951        C  0.22860614  0.91132991  0.08479502    -0.05900
H952        H  0.22778420  0.92344388  0.17155854     0.14800
C953        C  0.21023083  0.50424754  0.16036194    -0.16100
H954        H  0.20625469  0.48823667  0.07617262     0.09200
H955        H  0.27713158  0.47048336  0.91696310     0.07000
H956        H  0.28973093  0.49729150  0.96050512     0.08200
H957        H  0.27017284  0.50154302  0.91481695     0.07300
H958        H  0.15427661  0.93091714  0.05095826     0.02100
H959        H  0.15930181  0.89879767  0.05167615     0.02600
H960        H  0.13936923  0.90397248  0.00715227     0.06100
H961        H  0.23351453  0.89907266  0.11046978     0.05100
H962        H  0.24820567  0.92249327  0.06251334    -0.00700
H963        H  0.20895686  0.89488361  0.06560930     0.00800
H964        H  0.22666994  0.52492366  0.14295717     0.04500
H965        H  0.21521425  0.50834027  0.19599980     0.06400
H966        H  0.18750482  0.50048534  0.15410713     0.07300
C967        C  0.31207737  0.84035962  0.74614129    -0.22300
C968        C  0.34063362  0.84618679  0.75802644     0.09600
C969        C  0.34404306  0.83100869  0.79423013     0.10000
C970        C  0.31856942  0.80917568  0.81639501    -0.17200
C971        C  0.28980890  0.80172513  0.80242007    -0.27700
C972        C  0.28655110  0.81806132  0.76752117     0.18400
C973        C  0.36607616  0.86580253  0.72900553     0.12300
C974        C  0.37442593  0.83697605  0.80821911    -0.12000
H975        H  0.32107251  0.79684495  0.84339657     0.12600
C976        C  0.25633782  0.81227538  0.75278817    -0.22900
H977        H  0.30974292  0.85244890  0.71863591     0.08300
C978        C  0.36946253  0.85558236  0.68754103     0.04600
C979        C  0.39262799  0.87505694  0.65961357    -0.20100
C980        C  0.41304323  0.90452937  0.67221540    -0.12400
C981        C  0.41045010  0.91430728  0.71488248     0.13300
C982        C  0.38673610  0.89484626  0.74251177    -0.22800
C983        C  0.34875772  0.82394823  0.67284842    -0.05900
H984        H  0.39473367  0.86711161  0.62750883     0.14800
C985        C  0.43202107  0.94520310  0.73137739    -0.16100
H986        H  0.38408781  0.90235287  0.77465610     0.09200
H987        H  0.25818534  0.82847319  0.72714963     0.07000
H988        H  0.24407092  0.81431603  0.78132659     0.08200
H989        H  0.24334577  0.78963336  0.73837451     0.07300
H990        H  0.38836656  0.86065405  0.81825984     0.02100
H991        H  0.38541165  0.83233683  0.78038369     0.02600
H992        H  0.37307570  0.82274113  0.83658715     0.06100
H993        H  0.35516021  0.81938157  0.64006949     0.05100
H994        H  0.32561419  0.81972339  0.67030616    -0.00700
H995        H  0.34942459  0.80817277  0.69704661     0.00800
H996        H  0.42607449  0.94909481  0.76492931     0.04500
H997        H  0.43193397  0.96208423  0.70893884     0.06400
H998        H  0.45480762  0.94833561  0.73310534     0.07300
C999        C  0.18192876  0.67352823  0.72321830    -0.22300
C1000       C  0.15197333  0.65974176  0.73592535     0.09600
C1001       C  0.14412018  0.66844867  0.77539786     0.10000
C1002       C  0.16657132  0.69114415  0.80120194    -0.17200
C1003       C  0.19665855  0.70551266  0.78813652    -0.27700
C1004       C  0.20442047  0.69628168  0.74871068     0.18400
C1005       C  0.12935039  0.63617929  0.70708625     0.12300
C1006       C  0.11206226  0.65386034  0.79000120    -0.12000
H1007       H  0.16055265  0.69798584  0.83143040     0.12600
C1008       C  0.23636117  0.70939102  0.73392180    -0.22900
H1009       H  0.18768488  0.66639777  0.69302270     0.08300
C1010       C  0.11722111  0.64331074  0.67062594     0.04600
C1011       C  0.09736838  0.62044801  0.64249834    -0.20100
C1012       C  0.08934897  0.59049484  0.64976233    -0.12400
C1013       C  0.10063546  0.58333870  0.68770124     0.13300
C1014       C  0.12084311  0.60636357  0.71537412    -0.22800
C1015       C  0.12557867  0.67511834  0.66109032    -0.05900
H1016       H  0.08873520  0.62617107  0.61384407     0.14800
C1017       C  0.09123383  0.55191290  0.70136231    -0.16100
H1018       H  0.12994135  0.60100521  0.74388551     0.09200
H1019       H  0.24578374  0.73317956  0.72472721     0.07000
H1020       H  0.23826941  0.69771064  0.70450425     0.08200
H1021       H  0.24981524  0.70735718  0.76077982     0.07300
H1022       H  0.10303642  0.62957225  0.79482575     0.02100
H1023       H  0.09860908  0.65722157  0.76455027     0.02600
H1024       H  0.10969924  0.66333068  0.82156184     0.06100
H1025       H  0.11399705  0.67682996  0.63134958     0.05100
H1026       H  0.14997110  0.68882558  0.65536968    -0.00700
H1027       H  0.11937453  0.68435359  0.68952925     0.00800
H1028       H  0.11065839  0.54843383  0.69990443     0.04500
H1029       H  0.07310393  0.53508025  0.68075876     0.06400
H1030       H  0.08269877  0.54807102  0.73576122     0.07300
C1031       C  0.36684892  0.84967002  0.43002577    -0.22300
C1032       C  0.36970209  0.85647310  0.38501502     0.09600
C1033       C  0.39463371  0.88300582  0.36982396     0.10000
C1034       C  0.41585148  0.90258965  0.40039160    -0.17200
C1035       C  0.41274112  0.89633306  0.44598452    -0.27700
C1036       C  0.38791153  0.86898608  0.46075850     0.18400
C1037       C  0.34532092  0.83582703  0.35519819     0.12300
C1038       C  0.39888615  0.89047982  0.32137886    -0.12000
H1039       H  0.43474446  0.92315726  0.38852214     0.12600
C1040       C  0.38282341  0.85966028  0.50867247    -0.22900
H1041       H  0.34757327  0.82918985  0.44123211     0.08300
C1042       C  0.34124324  0.80755750  0.34413088     0.04600
C1043       C  0.31583995  0.78743615  0.32016479    -0.20100
C1044       C  0.29446038  0.79492003  0.30713245    -0.12400
C1045       C  0.29879693  0.82342379  0.31750803     0.13300
C1046       C  0.32422923  0.84352777  0.34139571    -0.22800
C1047       C  0.36362402  0.79862775  0.35775080    -0.05900
H1048       H  0.31240570  0.76555576  0.31202088     0.14800
C1049       C  0.27668710  0.83300627  0.30517885    -0.16100
H1050       H  0.32717899  0.86506002  0.35052942     0.09200
H1051       H  0.36288108  0.83721477  0.51327571     0.07000
H1052       H  0.37907404  0.87557751  0.52820402     0.08200
H1053       H  0.40227929  0.85865544  0.52183023     0.07300
H1054       H  0.37995133  0.89254225  0.30858314     0.02100
H1055       H  0.40002587  0.87253512  0.30309775     0.02600
H1056       H  0.41977866  0.91186090  0.31492558     0.06100
H1057       H  0.35737480  0.77603848  0.34551223     0.05100
H1058       H  0.36507349  0.79835459  0.39425734    -0.00700
H1059       H  0.38587199  0.81477255  0.34407977     0.00800
H1060       H  0.26841998  0.83844005  0.33555500     0.04500
H1061       H  0.25714107  0.81559611  0.28700589     0.06400
H1062       H  0.28778866  0.85322361  0.28400490     0.07300
C1063       C  0.15755975  0.65108920  0.32352328    -0.22300
C1064       C  0.15231076  0.65739503  0.36632746     0.09600
C1065       C  0.16923791  0.68662843  0.38294183     0.10000
C1066       C  0.19102628  0.70908591  0.35610802    -0.17200
C1067       C  0.19653470  0.70300628  0.31303169    -0.27700
C1068       C  0.17948757  0.67342223  0.29657762     0.18400
C1069       C  0.13052737  0.63264680  0.39451019     0.12300
C1070       C  0.16459591  0.69396139  0.42929075    -0.12000
H1071       H  0.20391794  0.73154573  0.36898597     0.12600
C1072       C  0.18494662  0.66467076  0.25162429    -0.22900
H1073       H  0.14470492  0.62838336  0.31147133     0.08300
C1074       C  0.10040881  0.62500741  0.39698446     0.04600
C1075       C  0.08144263  0.60310061  0.42726064    -0.20100
C1076       C  0.09159648  0.58780603  0.45422512    -0.12400
C1077       C  0.12180001  0.59478849  0.44981836     0.13300
C1078       C  0.14072931  0.61721067  0.42023750    -0.22800
C1079       C  0.08842219  0.64009798  0.36777304    -0.05900
H1080       H  0.05860900  0.59820674  0.43013262     0.14800
C1081       C  0.13494686  0.57966002  0.47665787    -0.16100
H1082       H  0.16392972  0.62317528  0.41754529     0.09200
H1083       H  0.17899593  0.67580219  0.22552589     0.07000
H1084       H  0.17117132  0.64024754  0.24603266     0.08200
H1085       H  0.20871705  0.67092387  0.24839143     0.07300
H1086       H  0.16907998  0.68043525  0.45322121     0.02100
H1087       H  0.14126137  0.68894571  0.43341269     0.02600
H1088       H  0.17968829  0.71788821  0.43714574     0.06100
H1089       H  0.06418838  0.63091056  0.37289920     0.05100
H1090       H  0.09187728  0.63660967  0.33263686    -0.00700
H1091       H  0.10013847  0.66438479  0.37477330     0.00800
H1092       H  0.12349683  0.55560407  0.46831205     0.04500
H1093       H  0.13277444  0.58275556  0.51242734     0.06400
H1094       H  0.15903497  0.58892181  0.46963264     0.07300
C1095       C  0.24484963  0.77294919  0.09747978    -0.22300
C1096       C  0.23614061  0.74552813  0.07713729     0.09600
C1097       C  0.22856274  0.72016824  0.10321808     0.10000
C1098       C  0.22986824  0.72282841  0.14930343    -0.17200
C1099       C  0.23883387  0.75032364  0.16998212    -0.27700
C1100       C  0.24600931  0.77569247  0.14361793     0.18400
C1101       C  0.23593828  0.74416399  0.02837701     0.12300
C1102       C  0.21947485  0.69043937  0.08238373    -0.12000
H1103       H  0.22446499  0.70339921  0.16933349     0.12600
C1104       C  0.25386812  0.80565727  0.16250395    -0.22900
H1105       H  0.25049382  0.79231719  0.07712534     0.08300
C1106       C  0.21069931  0.73874617  0.00353613     0.04600
C1107       C  0.21218554  0.73894572  0.95724504    -0.20100
C1108       C  0.23843024  0.74467041  0.93542551    -0.12400
C1109       C  0.26331057  0.74889356  0.96056389     0.13300
C1110       C  0.26179822  0.74892587  0.00673378    -0.22800
C1111       C  0.18245474  0.73325265  0.02591318    -0.05900
H1112       H  0.19311581  0.73556678  0.93800459     0.14800
C1113       C  0.29146708  0.75253186  0.94014096    -0.16100
H1114       H  0.28093958  0.75257067  0.02609906     0.09200
H1115       H  0.23871647  0.81290113  0.14850234     0.07000
H1116       H  0.27716788  0.82234512  0.15348524     0.08200
H1117       H  0.25152250  0.80547644  0.19877766     0.07300
H1118       H  0.23785359  0.69234038  0.06130857     0.02100
H1119       H  0.19929861  0.68321486  0.06178754     0.02600
H1120       H  0.21431583  0.67290608  0.10759079     0.06100
H1121       H  0.16485919  0.72950286  0.00163351     0.05100
H1122       H  0.18704559  0.75283707  0.04640163    -0.00700
H1123       H  0.17376924  0.71321391  0.04736531     0.00800
H1124       H  0.31045684  0.77500849  0.94801210     0.04500
H1125       H  0.29004344  0.74957984  0.90389789     0.06400
H1126       H  0.29613236  0.73542815  0.95397454     0.07300
C1127       C  0.72074308  0.22774369  0.28711456     0.80300
N1128       N  0.74527780  0.24957184  0.30786683    -0.78000
C1129       C  0.76752185  0.27209571  0.28433613     0.82800
N1130       N  0.76536814  0.27274377  0.23971539    -0.77900
C1131       C  0.74074128  0.25127065  0.21872363     0.82900
N1132       N  0.71870932  0.22887091  0.24260818    -0.79600
C1133       C  0.71942755  0.22948716  0.81650028     0.80300
N1134       N  0.74236170  0.25427506  0.79798769    -0.78000
C1135       C  0.76387018  0.27592941  0.82334481     0.82800
N1136       N  0.76260980  0.27248020  0.86781496    -0.77900
C1137       C  0.73970699  0.24788855  0.88690892     0.82900
N1138       N  0.71794057  0.22658108  0.86119717    -0.79600
C1139       C  0.73802169  0.45981293  0.28825774     0.80300
N1140       N  0.73866421  0.45915127  0.24345116    -0.78000
C1141       C  0.71724044  0.46036208  0.21917775     0.82800
N1142       N  0.69466441  0.46157574  0.24003731    -0.77900
C1143       C  0.69344946  0.46164882  0.28478015     0.82900
N1144       N  0.71516091  0.46073529  0.30882792    -0.79600
C1145       C  0.73444118  0.45655576  0.81653418     0.80300
N1146       N  0.73530244  0.45374959  0.86099834    -0.78000
C1147       C  0.71294702  0.45153709  0.88702688     0.82800
N1148       N  0.68933008  0.45183603  0.86801911    -0.77900
C1149       C  0.68814055  0.45451074  0.82357469     0.82900
N1150       N  0.71052801  0.45643536  0.79795937    -0.79600
C1151       C  0.99718904  0.24275049  0.28992915     0.80300
N1152       N  0.00116856  0.24490633  0.24554723    -0.78000
C1153       C  0.00151944  0.22275564  0.22218908     0.82800
N1154       N  0.99787379  0.19815400  0.24405259    -0.77900
C1155       C  0.99369983  0.19553526  0.28849015     0.82900
N1156       N  0.99381265  0.21814888  0.31130398    -0.79600
C1157       C  0.00442704  0.24513474  0.82106760     0.80300
N1158       N  0.00577299  0.24611735  0.86587160    -0.78000
C1159       C  0.00817571  0.22490506  0.88898692     0.82800
N1160       N  0.00865690  0.20228086  0.86709888    -0.77900
C1161       C  0.00803103  0.20149361  0.82232115     0.82900
N1162       N  0.00600112  0.22299323  0.79951328    -0.79600
O1163       O  0.91501895  0.99466293  0.50737121    -0.88100
C1164       C  0.57034814  0.06828580  0.61587438     1.12000
O1165       O  0.95534089  0.47500380  0.55487532    -1.35900
O1166       O  0.54848206  0.06865797  0.50014384    -0.89500
O1167       O  0.89489904  0.44501021  0.50505132    -0.90200
O1168       O  0.95691434  0.44286627  0.46373223    -0.79000
O1169       O  0.98191405  0.03243242  0.51067943    -1.01100
C1170       C  0.54339951  0.48017479  0.47397773     1.22000
O1171       O  0.98977180  0.44740845  0.55640246    -1.36000
Mn1172     Mn  0.98809700  0.47826741  0.60239236     1.82100
O1173       O  0.51917418  0.47784641  0.46165941    -0.78100
O1174       O  0.57692563  0.04777469  0.50540848    -0.87500
C1175       C  0.54358011  0.48099003  0.63567849     1.13100
C1176       C  0.57095102  0.06657441  0.48834418     1.07800
O1177       O  0.95860331  0.44794509  0.64905274    -0.79000
O1178       O  0.51734061  0.00950251  0.55330027    -1.32700
O1179       O  0.93111328  0.41795947  0.59982691    -0.98200
C1180       C  0.99245723  0.39236043  0.49571304     1.06600
Mn1181     Mn  0.56069155  0.01506018  0.55464281     1.48600
O1182       O  0.96781855  0.38627053  0.51333364    -0.87400
Mn1183     Mn  0.91454563  0.43347730  0.55602355     1.49600
O1184       O  0.91793501  0.99703601  0.60560010    -0.91300
C1185       C  0.98181734  0.02714519  0.47141287     1.19700
C1186       C  0.89779574  0.47136266  0.61871819     1.11800
Mn1187     Mn  0.98713036  0.47626389  0.50698623     1.81000
O1188       O  0.54822513  0.48163579  0.59625048    -0.96500
Mn1189     Mn  0.94958224  0.01287643  0.55436849     1.49300
C1190       C  0.89610846  0.46902111  0.49251569     1.08300
Mn1191     Mn  0.53106872  0.44802240  0.55527838     1.49900
C1192       C  0.99528465  0.39632193  0.62382404     1.11200
O1193       O  0.93132057  0.41569212  0.51685591    -1.02300
O1194       O  0.57618423  0.04821574  0.60393765    -0.91900
C1195       C  0.93487651  0.41902417  0.47709277     1.22500
O1196       O  0.54775428  0.48140435  0.51356273    -1.02700
O1197       O  0.54977284  0.07138788  0.59839189    -0.90100
O1198       O  0.51885408  0.41609591  0.60494308    -0.89700
O1199       O  0.89446195  0.44717977  0.60290345    -0.89700
Mn1200     Mn  0.51650436  0.05025978  0.55068339     1.47900
O1201       O  0.52011103  0.48039136  0.64750023    -0.78200
C1202       C  0.93543975  0.42429067  0.63890508     1.15600
O1203       O  0.98418846  0.00505613  0.46067029    -0.76900
O1204       O  0.98715003  0.00911292  0.64565123    -0.76500
Mn1205     Mn  0.95174881  0.40407854  0.56039967     1.51100
O1206       O  0.51717798  0.41507380  0.50648526    -0.88900
O1207       O  0.98403620  0.03497879  0.59400145    -0.96400
O1208       O  0.96921526  0.39019631  0.61205522    -0.91400
C1209       C  0.98611015  0.03166487  0.63355298     1.13400
C1210       C  0.00611043  0.08285565  0.73417771    -0.22300
C1211       C  0.99614949  0.10215797  0.72029227     0.09600
C1212       C  0.98178259  0.09744991  0.67915756     0.10000
C1213       C  0.97851999  0.07407131  0.65212433    -0.17200
C1214       C  0.98875676  0.05474887  0.66543772    -0.27700
C1215       C  0.00230209  0.05896364  0.70760712     0.18400
C1216       C  0.00071862  0.12714972  0.74927284     0.12300
C1217       C  0.96955348  0.11691617  0.66402925    -0.12000
H1218       H  0.96773169  0.07080776  0.62033051     0.12600
C1219       C  0.51335530  0.03893368  0.72472550    -0.22900
H1220       H  0.51694510  0.08657341  0.76601005     0.08300
C1221       C  0.98191329  0.12253342  0.78564992     0.04600
C1222       C  0.98565472  0.14721288  0.81002424    -0.20100
C1223       C  0.00759741  0.17639389  0.79856240    -0.12400
C1224       C  0.02726317  0.18084320  0.76320532     0.13300
C1225       C  0.02343733  0.15613858  0.73889098    -0.22800
C1226       C  0.95733082  0.09167288  0.79778709    -0.05900
H1227       H  0.97067243  0.14380816  0.83719301     0.14800
C1228       C  0.55290017  0.21109806  0.75077327    -0.16100
H1229       H  0.53815373  0.15951727  0.71132509     0.09200
H1230       H  0.99435878  0.01583310  0.72854629     0.07000
H1231       H  0.52429595  0.04630716  0.75743176     0.08200
H1232       H  0.52992919  0.03913322  0.70147577     0.07300
H1233       H  0.98789543  0.14039242  0.66096833     0.02100
H1234       H  0.95295107  0.11569531  0.68831745     0.02600
H1235       H  0.95836897  0.10978741  0.63145060     0.06100
H1236       H  0.94425665  0.09204558  0.82653826     0.05100
H1237       H  0.96697050  0.07744319  0.80644962    -0.00700
H1238       H  0.94185961  0.08158601  0.76947459     0.00800
H1239       H  0.57400291  0.21049695  0.75172095     0.04500
H1240       H  0.55568063  0.22905743  0.77341870     0.06400
H1241       H  0.54951574  0.21689854  0.71680250     0.07300
C1242       C  0.98282995  0.34814503  0.72595397    -0.22300
C1243       C  0.00334479  0.33860667  0.71796011     0.09600
C1244       C  0.02283798  0.35019041  0.68163655     0.10000
C1245       C  0.52036243  0.36997445  0.65274432    -0.17200
C1246       C  0.99882469  0.37850562  0.65921120    -0.27700
C1247       C  0.98077696  0.36852738  0.69760705     0.18400
C1248       C  0.00284627  0.31503738  0.74623086     0.12300
C1249       C  0.54571890  0.34104877  0.67277777    -0.12000
H1250       H  0.53463657  0.37792288  0.62389915     0.12600
C1251       C  0.96011420  0.37968545  0.71075385    -0.22900
H1252       H  0.96836856  0.33965913  0.75456677     0.08300
C1253       C  0.01988485  0.32171464  0.78514835     0.04600
C1254       C  0.01939616  0.29835516  0.80951105    -0.20100
C1255       C  0.00206494  0.26846251  0.79592489    -0.12400
C1256       C  0.98387491  0.26186222  0.75785948     0.13300
C1257       C  0.98507041  0.28531628  0.73309288    -0.22800
C1258       C  0.53876205  0.35344554  0.80051538    -0.05900
H1259       H  0.53314842  0.30352644  0.83875365     0.14800
C1260       C  0.96194013  0.23054508  0.74313624    -0.16100
H1261       H  0.97162639  0.28036031  0.70351300     0.09200
H1262       H  0.96508736  0.38818156  0.74513118     0.07000
H1263       H  0.93662606  0.36119802  0.70903032     0.08200
H1264       H  0.96292821  0.39845913  0.68996134     0.07300
H1265       H  0.53444818  0.31660443  0.66724922     0.02100
H1266       H  0.56098008  0.34692320  0.70143085     0.02600
H1267       H  0.55937332  0.35241959  0.64316488     0.06100
H1268       H  0.55076114  0.35483172  0.83157766     0.05100
H1269       H  0.52439785  0.36330391  0.80659075    -0.00700
H1270       H  0.55557173  0.36679444  0.77496556     0.00800
H1271       H  0.93971004  0.22838553  0.73825650     0.04500
H1272       H  0.95866856  0.21325543  0.76753235     0.06400
H1273       H  0.96941552  0.22587735  0.71135045     0.07300
C1274       C  0.97058046  0.11525665  0.32053162    -0.22300
C1275       C  0.98571625  0.11984777  0.36061225     0.09600
C1276       C  0.50372719  0.14924556  0.37656454     0.10000
C1277       C  0.50560172  0.17328906  0.35236668    -0.17200
C1278       C  0.99000900  0.16878694  0.31240846    -0.27700
C1279       C  0.97197718  0.13919552  0.29655923     0.18400
C1280       C  0.98196575  0.09361833  0.38601662     0.12300
C1281       C  0.52117363  0.15529094  0.41885912    -0.12000
H1282       H  0.51953309  0.19581117  0.36455123     0.12600
C1283       C  0.95258070  0.13153107  0.25606295    -0.22900
H1284       H  0.95671691  0.09264539  0.30859363     0.08300
C1285       C  0.96234427  0.08235010  0.42232269     0.04600
C1286       C  0.96222683  0.06005341  0.44879333    -0.20100
C1287       C  0.97998703  0.04745155  0.43847269    -0.12400
C1288       C  0.99730021  0.05661227  0.39937678     0.13300
C1289       C  0.99855297  0.08007852  0.37412157    -0.22800
C1290       C  0.94119904  0.09350396  0.43273176    -0.05900
H1291       H  0.94824516  0.05250106  0.47795083     0.14800
C1292       C  0.01504777  0.04238809  0.38473580    -0.16100
H1293       H  0.01281417  0.08818973  0.34527669     0.09200
H1294       H  0.92936255  0.11436333  0.26469681     0.07000
H1295       H  0.96091806  0.12235036  0.23027739     0.08200
H1296       H  0.95134883  0.15062249  0.24221307     0.07300
H1297       H  0.53673905  0.14657204  0.41638227     0.02100
H1298       H  0.50593568  0.14428632  0.44708739     0.02600
H1299       H  0.53446096  0.17954181  0.42606314     0.06100
H1300       H  0.92699674  0.08186518  0.46178184     0.05100
H1301       H  0.92632169  0.08945494  0.40403775    -0.00700
H1302       H  0.45407366  0.11803256  0.44001193     0.00800
H1303       H  0.99969600  0.01846264  0.37729711     0.04500
H1304       H  0.03074559  0.04421831  0.41102467     0.06400
H1305       H  0.52798718  0.05288723  0.35427610     0.07300
C1306       C  0.97443519  0.32242915  0.43012554    -0.22300
C1307       C  0.99692056  0.33424980  0.39815850     0.09600
C1308       C  0.51702761  0.36521677  0.39680268     0.10000
C1309       C  0.51472523  0.38367966  0.42855171    -0.17200
C1310       C  0.99253172  0.37189643  0.46140723    -0.27700
C1311       C  0.97184612  0.34071222  0.46176727     0.18400
C1312       C  0.99959645  0.31319872  0.36816277     0.12300
C1313       C  0.54095943  0.37867347  0.36209461    -0.12000
H1314       H  0.53041336  0.40746033  0.42774003     0.12600
C1315       C  0.94768072  0.32609745  0.49617251    -0.22900
H1316       H  0.95914071  0.29852957  0.43076118     0.08300
C1317       C  0.51579976  0.29919402  0.38083702     0.04600
C1318       C  0.51471946  0.27654993  0.35426889    -0.20100
C1319       C  0.99767983  0.26740886  0.31532189    -0.12400
C1320       C  0.98177277  0.28190164  0.30233310     0.13300
C1321       C  0.98328477  0.30485687  0.32879690    -0.22800
C1322       C  0.53383146  0.30787006  0.42277096    -0.05900
H1323       H  0.52711961  0.26575378  0.36410402     0.14800
C1324       C  0.96155326  0.27288254  0.26261207    -0.16100
H1325       H  0.97060082  0.31548737  0.31963468     0.09200
H1326       H  0.93498896  0.30143092  0.49268442     0.07000
H1327       H  0.93147635  0.33400332  0.49267584     0.08200
H1328       H  0.95766148  0.33129549  0.52969391     0.07300
H1329       H  0.03066502  0.37432252  0.32891188     0.02100
H1330       H  0.55560367  0.36881729  0.36416554     0.02600
H1331       H  0.55507718  0.40312221  0.36644374     0.06100
H1332       H  0.54522971  0.29478628  0.42771167     0.05100
H1333       H  0.51903748  0.30385287  0.45154312    -0.00700
H1334       H  0.55111569  0.33186370  0.42155884     0.00800
H1335       H  0.93901668  0.26801812  0.27303619     0.04500
H1336       H  0.95852622  0.25258695  0.24602348     0.06400
H1337       H  0.97055235  0.29149969  0.23838646     0.07300
C1338       C  0.01817430  0.25100275  0.10265890    -0.22300
C1339       C  0.00603303  0.22402770  0.07966181     0.09600
C1340       C  0.99313679  0.19692172  0.10319206     0.10000
C1341       C  0.99245402  0.19738381  0.14944962    -0.17200
C1342       C  0.00407467  0.22434977  0.17304492    -0.27700
C1343       C  0.01727975  0.25166049  0.14897026     0.18400
C1344       C  0.00663669  0.22470779  0.03079079     0.12300
C1345       C  0.97962008  0.16749315  0.07937346    -0.12000
H1346       H  0.98216118  0.17636058  0.16717053     0.12600
C1347       C  0.53095817  0.28173350  0.17115762    -0.22900
H1348       H  0.52813378  0.27171492  0.08402112     0.08300
C1349       C  0.98535030  0.22803752  0.00629520     0.04600
C1350       C  0.98681961  0.22862644  0.96002818    -0.20100
C1351       C  0.00899067  0.22577998  0.93773101    -0.12400
C1352       C  0.53076187  0.22312039  0.96246369     0.13300
C1353       C  0.52907166  0.22232054  0.00870386    -0.22800
C1354       C  0.96081996  0.23043357  0.02903977    -0.05900
H1355       H  0.97020262  0.23070803  0.94111168     0.14800
C1356       C  0.55673185  0.22228034  0.94162878    -0.16100
H1357       H  0.54562568  0.22020826  0.02777424     0.09200
H1358       H  0.01338519  0.28430878  0.18803547     0.07000
H1359       H  0.54194948  0.30034678  0.14706108     0.08200
H1360       H  0.54814536  0.28406422  0.19522489     0.07300
H1361       H  0.99693317  0.16638605  0.05930647     0.02100
H1362       H  0.96145258  0.16516111  0.05735362     0.02600
H1363       H  0.97009047  0.14834064  0.10269278     0.06100
H1364       H  0.94575845  0.23246721  0.00500282     0.05100
H1365       H  0.97056927  0.25042859  0.05057399    -0.00700
H1366       H  0.94727691  0.21021845  0.04946565     0.00800
H1367       H  0.57788183  0.24040520  0.95568172     0.04500
H1368       H  0.55811437  0.22565554  0.90545818     0.06400
H1369       H  0.55513403  0.20051878  0.94891060     0.07300
C1370       C  0.79368033  0.98066560  0.72652352    -0.22300
C1371       C  0.80594710  0.46267935  0.73637536     0.09600
C1372       C  0.79540997  0.44341275  0.77315887     0.10000
C1373       C  0.77231140  0.44220197  0.79893624    -0.17200
C1374       C  0.75957375  0.45992327  0.78887013    -0.27700
C1375       C  0.77109896  0.98008891  0.75274537     0.18400
C1376       C  0.82960043  0.46419252  0.70725375     0.12300
C1377       C  0.80844043  0.42403720  0.78492219    -0.12000
H1378       H  0.76383813  0.42697750  0.82672826     0.12600
C1379       C  0.76146365  0.00241293  0.74178936    -0.22900
H1380       H  0.80223472  0.99573826  0.69852299     0.08300
C1381       C  0.82243280  0.44560386  0.67004239     0.04600
C1382       C  0.84540062  0.44813077  0.64276439    -0.20100
C1383       C  0.87547839  0.46897104  0.65151370    -0.12400
C1384       C  0.88266309  0.48720919  0.68955917     0.13300
C1385       C  0.85952895  0.48476728  0.71662846    -0.22800
C1386       C  0.79049055  0.42342376  0.65877402    -0.05900
H1387       H  0.83973256  0.43421357  0.61363004     0.14800
C1388       C  0.91420209  0.00858350  0.70373719    -0.16100
H1389       H  0.86487681  0.99879619  0.74559127     0.09200
H1390       H  0.74927057  0.99639117  0.70991884     0.07000
H1391       H  0.78146031  0.02496927  0.73859254     0.08200
H1392       H  0.74740433  0.00431647  0.76749516     0.07300
H1393       H  0.83264816  0.43825586  0.79169848     0.02100
H1394       H  0.80530041  0.40876884  0.75719895     0.02600
H1395       H  0.79767708  0.41024991  0.81468846     0.06100
H1396       H  0.78878274  0.41068783  0.62842261     0.05100
H1397       H  0.77792243  0.43528317  0.65322419    -0.00700
H1398       H  0.77997605  0.40724880  0.68623874     0.00800
H1399       H  0.91843513  0.03180662  0.70240422     0.04500
H1400       H  0.93096072  0.00703545  0.68325333     0.06400
H1401       H  0.91751276  0.00343175  0.73815635     0.07300
C1402       C  0.61170238  0.48372957  0.68923477    -0.22300
C1403       C  0.59915163  0.46714930  0.72758749     0.09600
C1404       C  0.56892275  0.45672109  0.73722296     0.10000
C1405       C  0.55168397  0.46263954  0.70742565    -0.17200
C1406       C  0.56396905  0.47859452  0.66797177    -0.27700
C1407       C  0.59482747  0.48982356  0.65939107     0.18400
C1408       C  0.61856294  0.46089475  0.75622350     0.12300
C1409       C  0.55480324  0.43874402  0.77827427    -0.12000
H1410       H  0.52820944  0.45383752  0.71430389     0.12600
C1411       C  0.61165434  0.00895076  0.62026893    -0.22900
H1412       H  0.63512053  0.99200457  0.68244176     0.08300
C1413       C  0.62546219  0.43866589  0.74485620     0.04600
C1414       C  0.64769796  0.43662564  0.76837866    -0.20100
C1415       C  0.66329746  0.45638550  0.80291120    -0.12400
C1416       C  0.65593591  0.97837333  0.81484297     0.13300
C1417       C  0.63337445  0.98004836  0.79158118    -0.22800
C1418       C  0.60966932  0.41747677  0.70735021    -0.05900
H1419       H  0.65335211  0.41985149  0.75924016     0.14800
C1420       C  0.67247690  0.00169972  0.84969781    -0.16100
H1421       H  0.62835800  0.99744516  0.79959446     0.09200
H1422       H  0.61995776  0.99693779  0.59971802     0.07000
H1423       H  0.63110809  0.03000018  0.63214548     0.08200
H1424       H  0.59873394  0.01556871  0.59916047     0.07300
H1425       H  0.56637063  0.45219719  0.80786615     0.02100
H1426       H  0.55662683  0.41831113  0.77802292     0.02600
H1427       H  0.53082032  0.43186287  0.78063654     0.06100
H1428       H  0.61715614  0.40094280  0.70346982     0.05100
H1429       H  0.61415382  0.43006810  0.67593424    -0.00700
H1430       H  0.58528596  0.40515461  0.71362241     0.00800
H1431       H  0.68151693  0.02425106  0.83494067     0.04500
H1432       H  0.69157406  0.00075591  0.86411075     0.06400
H1433       H  0.65688794  0.99907643  0.87671552     0.07300
C1434       C  0.83274905  0.47507185  0.43959415    -0.22300
C1435       C  0.82928895  0.46039277  0.39940857     0.09600
C1436       C  0.84790361  0.44852650  0.38969236     0.10000
C1437       C  0.86970468  0.45176316  0.42049127    -0.17200
C1438       C  0.87337975  0.46676854  0.46064736    -0.27700
C1439       C  0.85413918  0.47802118  0.47064357     0.18400
C1440       C  0.80598502  0.45806168  0.36834293     0.12300
C1441       C  0.84454257  0.43228631  0.34707416    -0.12000
H1442       H  0.88401066  0.44263939  0.41317238     0.12600
C1443       C  0.85435072  0.99199496  0.51439398    -0.22900
H1444       H  0.81819016  0.98387281  0.44714558     0.08300
C1445       C  0.77556814  0.43671737  0.37442806     0.04600
C1446       C  0.75395537  0.43778428  0.34763080    -0.20100
C1447       C  0.76204064  0.45956117  0.31457484    -0.12400
C1448       C  0.79269377  0.48060594  0.30794514     0.13300
C1449       C  0.81419533  0.47938890  0.33475437    -0.22800
C1450       C  0.76597855  0.41282750  0.40919999    -0.05900
H1451       H  0.73058150  0.42152460  0.35249881     0.14800
C1452       C  0.80370783  0.00568808  0.27477094    -0.16100
H1453       H  0.83754750  0.49594307  0.33049081     0.09200
H1454       H  0.83179324  0.97957502  0.52943562     0.07000
H1455       H  0.86018867  0.01552408  0.50912499     0.08200
H1456       H  0.87008503  0.99160461  0.53867130     0.07300
H1457       H  0.84849239  0.44746036  0.31876513     0.02100
H1458       H  0.82166416  0.41273088  0.34471105     0.02600
H1459       H  0.86067689  0.42419852  0.34478258     0.06100
H1460       H  0.74144000  0.39760857  0.40916200     0.05100
H1461       H  0.77259600  0.42316911  0.44234744    -0.00700
H1462       H  0.77675255  0.39930267  0.40296393     0.00800
H1463       H  0.81727554  0.02733718  0.29191597     0.04500
H1464       H  0.78561136  0.50692061  0.25736310     0.06400
H1465       H  0.81790883  0.50302856  0.24988948     0.07300
C1466       C  0.62612190  0.44424284  0.35601599    -0.22300
C1467       C  0.62539058  0.47087302  0.35233730     0.09600
C1468       C  0.64669441  0.49413721  0.32547878     0.10000
C1469       C  0.66792956  0.49000573  0.30245662    -0.17200
C1470       C  0.66910589  0.46363531  0.30706516    -0.27700
C1471       C  0.64767214  0.44030506  0.33379208     0.18400
C1472       C  0.60463477  0.47503105  0.38143638     0.12300
C1473       C  0.64790522  0.02375820  0.32268324    -0.12000
H1474       H  0.68445985  0.50789788  0.28209879     0.12600
C1475       C  0.64668354  0.41091367  0.33941432    -0.22900
H1476       H  0.61016729  0.42661704  0.37730936     0.08300
C1477       C  0.57640070  0.46964564  0.36732437     0.04600
C1478       C  0.55724782  0.47224315  0.39778678    -0.20100
C1479       C  0.56536325  0.47952978  0.44238984    -0.12400
C1480       C  0.59393174  0.48482334  0.45614472     0.13300
C1481       C  0.61305146  0.48278393  0.42538042    -0.22800
C1482       C  0.56616207  0.96046391  0.32048448    -0.05900
H1483       H  0.53548968  0.96777462  0.38684944     0.14800
C1484       C  0.60471250  0.49207811  0.50321184    -0.16100
H1485       H  0.63467882  0.48658450  0.43591001     0.09200
H1486       H  0.62452154  0.39249562  0.32887908     0.07000
H1487       H  0.65011027  0.40764897  0.37469443     0.08200
H1488       H  0.66380283  0.40931816  0.31967804     0.07300
H1489       H  0.65171073  0.53379702  0.35621807     0.02100
H1490       H  0.62671271  0.02082575  0.30931576     0.02600
H1491       H  0.66628629  0.03966600  0.30089647     0.06100
H1492       H  0.54305584  0.95595756  0.31537933     0.05100
H1493       H  0.56673057  0.44001164  0.31205119    -0.00700
H1494       H  0.58097017  0.97841359  0.29735758     0.00800
H1495       H  0.62787280  0.49645524  0.50704527     0.04500
H1496       H  0.59031527  0.47295895  0.52504484     0.06400
H1497       H  0.60454871  0.51235848  0.51432016     0.07300
C1498       C  0.74134265  0.46567936  0.00579507    -0.22300
C1499       C  0.71458635  0.44976830  0.02914813     0.09600
C1500       C  0.68755142  0.43335537  0.00598912     0.10000
C1501       C  0.68785143  0.43370184  0.95966187    -0.17200
C1502       C  0.71459734  0.45009432  0.93588313    -0.27700
C1503       C  0.74181351  0.46612374  0.95948183     0.18400
C1504       C  0.71539151  0.45211886  0.07786206     0.12300
C1505       C  0.65842855  0.41573606  0.03023134    -0.12000
H1506       H  0.66699916  0.42130155  0.94190272     0.12600
C1507       C  0.77132772  0.98489684  0.93660296    -0.22900
H1508       H  0.76193599  0.97832096  0.02409541     0.08300
C1509       C  0.72233502  0.43420807  0.10473910     0.04600
C1510       C  0.72326570  0.43776392  0.15075394    -0.20100
C1511       C  0.71790365  0.45918411  0.17039772    -0.12400
C1512       C  0.71250485  0.47819264  0.14302090     0.16000
C1513       C  0.71063450  0.47389070  0.09719934    -0.22800
C1514       C  0.72860842  0.41133059  0.08479074    -0.05900
H1515       H  0.72778535  0.42344116  0.17155532     0.14800
C1516       C  0.71022762  0.00424194  0.16036692    -0.16100
H1517       H  0.70625250  0.98823397  0.07617624     0.09200
H1518       H  0.77713113  0.97048239  0.91696317     0.07000
H1519       H  0.78973118  0.99729053  0.96050522     0.08200
H1520       H  0.77017378  0.00154296  0.91481693     0.07300
H1521       H  0.65427589  0.43091368  0.05095854     0.02100
H1522       H  0.65930369  0.39879575  0.05167477     0.02600
H1523       H  0.63936991  0.40396955  0.00715165     0.06100
H1524       H  0.73351734  0.39907295  0.11046419     0.05100
H1525       H  0.74820803  0.42249540  0.06250947    -0.00700
H1526       H  0.70895959  0.39488442  0.06560410     0.00800
H1527       H  0.72666606  0.02491888  0.14296322     0.04500
H1528       H  0.71521101  0.00833375  0.19600493     0.06400
H1529       H  0.68750123  0.00047886  0.15411285     0.07300
C1530       C  0.81207815  0.34035876  0.74613873    -0.22300
C1531       C  0.84063438  0.34618574  0.75802379     0.09600
C1532       C  0.84404342  0.33100641  0.79422617     0.10000
C1533       C  0.81856956  0.30917256  0.81638977    -0.17200
C1534       C  0.78980909  0.30172242  0.80241505    -0.27700
C1535       C  0.78655167  0.31805984  0.76751759     0.18400
C1536       C  0.86607737  0.36580255  0.72900393     0.12300
C1537       C  0.87442617  0.33697345  0.80821516    -0.12000
H1538       H  0.82107250  0.29684103  0.84339030     0.12600
C1539       C  0.75633858  0.31227482  0.75278535    -0.22900
H1540       H  0.80974391  0.35244890  0.71863439     0.08300
C1541       C  0.86946458  0.35558351  0.68753903     0.04600
C1542       C  0.89263081  0.37505867  0.65961297    -0.20100
C1543       C  0.91304595  0.40453081  0.67221645    -0.12400
C1544       C  0.91045184  0.41430769  0.71488379     0.13300
C1545       C  0.88673723  0.39484596  0.74251191    -0.22800
C1546       C  0.84875976  0.32394991  0.67284424    -0.05900
H1547       H  0.89473706  0.36711409  0.62750810     0.14800
C1548       C  0.93202242  0.44520317  0.73138029    -0.16100
H1549       H  0.88408843  0.40235174  0.77465650     0.09200
H1550       H  0.75818640  0.32847356  0.72714822     0.07000
H1551       H  0.74407185  0.31431487  0.78132453     0.08200
H1552       H  0.74334627  0.28963329  0.73837020     0.07300
H1553       H  0.88836660  0.36065112  0.81825758     0.02100
H1554       H  0.88541223  0.33233519  0.78037920     0.02600
H1555       H  0.87307570  0.32273762  0.83658207     0.06100
H1556       H  0.85516286  0.31938408  0.64006523     0.05100
H1557       H  0.82561643  0.31972557  0.67030124    -0.00700
H1558       H  0.84942573  0.30817359  0.69704170     0.00800
H1559       H  0.92607528  0.44909404  0.76493233     0.04500
H1560       H  0.93193558  0.46208479  0.70894248     0.06400
H1561       H  0.95480900  0.44833574  0.73310864     0.07300
C1562       C  0.68192614  0.17352914  0.72320783    -0.22300
C1563       C  0.65197097  0.15974103  0.73591671     0.09600
C1564       C  0.64411821  0.16844682  0.77539069     0.10000
C1565       C  0.66656958  0.19114193  0.80119525    -0.17200
C1566       C  0.69665666  0.20551153  0.78812865    -0.27700
C1567       C  0.70441798  0.19628249  0.74870023     0.18400
C1568       C  0.62934812  0.13617763  0.70707834     0.12300
C1569       C  0.61206044  0.15385770  0.78999498    -0.12000
H1570       H  0.66055121  0.19798237  0.83142520     0.12600
C1571       C  0.73635831  0.20939369  0.73390840    -0.22900
H1572       H  0.68768198  0.16639988  0.69301078     0.08300
C1573       C  0.61721810  0.14330782  0.67061765     0.04600
C1574       C  0.59736620  0.12044440  0.64249025    -0.20100
C1575       C  0.58934812  0.09049160  0.64975475    -0.12400
C1576       C  0.60063500  0.08333660  0.68769441     0.13300
C1577       C  0.62084204  0.10636225  0.71536690    -0.22800
C1578       C  0.62557387  0.17511485  0.66108147    -0.05900
H1579       H  0.58873254  0.12616670  0.61383572     0.14800
C1580       C  0.59123434  0.05191127  0.70135694    -0.16100
H1581       H  0.62994076  0.10100479  0.74387863     0.09200
H1582       H  0.74577938  0.23318233  0.72471562     0.07000
H1583       H  0.73826623  0.19771465  0.70448889     0.08200
H1584       H  0.74981386  0.20735988  0.76076406     0.07300
H1585       H  0.60303500  0.12956957  0.79481814     0.02100
H1586       H  0.59860681  0.15721922  0.76454517     0.02600
H1587       H  0.60969759  0.16332726  0.82155651     0.06100
H1588       H  0.61399159  0.17682545  0.63134076     0.05100
H1589       H  0.64996616  0.18882314  0.65536046    -0.00700
H1590       H  0.61936907  0.18434964  0.68952026     0.00800
H1591       H  0.61065937  0.04843295  0.69989983     0.04500
H1592       H  0.57310465  0.03507777  0.68075404     0.06400
H1593       H  0.58269934  0.04806987  0.73575589     0.07300
C1594       C  0.86684689  0.34967972  0.43002833    -0.22300
C1595       C  0.86970422  0.35647886  0.38501589     0.09600
C1596       C  0.89463935  0.38300879  0.36982440     0.10000
C1597       C  0.91585657  0.40259295  0.40039266    -0.17200
C1598       C  0.91274335  0.39633879  0.44598632    -0.27700
C1599       C  0.88791025  0.36899479  0.46076099     0.18400
C1600       C  0.84532609  0.33582895  0.35519698     0.12300
C1601       C  0.89889730  0.39047892  0.32137823    -0.12000
H1602       H  0.93475228  0.42315828  0.38852277     0.12600
C1603       C  0.88282002  0.35967019  0.50867542    -0.22900
H1604       H  0.84756856  0.32920224  0.44123563     0.08300
C1605       C  0.84123893  0.30755055  0.34416424     0.04600
C1606       C  0.81583646  0.28742630  0.32019925    -0.20100
C1607       C  0.79446797  0.29491644  0.30713016    -0.12400
C1608       C  0.79881510  0.32342945  0.31746826     0.13300
C1609       C  0.82424557  0.34353561  0.34135787    -0.22800
C1610       C  0.86360976  0.29861494  0.35781700    -0.05900
H1611       H  0.81239496  0.26553937  0.31208251     0.14800
C1612       C  0.77671737  0.33301972  0.30509957    -0.16100
H1613       H  0.82720194  0.36507457  0.35046492     0.09200
H1614       H  0.86287479  0.33722678  0.51327925     0.07000
H1615       H  0.87907456  0.37559052  0.52820556     0.08200
H1616       H  0.90227333  0.35866083  0.52183414     0.07300
H1617       H  0.87996672  0.39254569  0.30857475     0.02100
H1618       H  0.90003404  0.37253033  0.30310382     0.02600
H1619       H  0.91979310  0.41185698  0.31492512     0.06100
H1620       H  0.85735542  0.27601988  0.34559905     0.05100
H1621       H  0.86505261  0.29835226  0.39432502    -0.00700
H1622       H  0.88586199  0.31474997  0.34414855     0.00800
H1623       H  0.76845088  0.33847340  0.33545793     0.04500
H1624       H  0.75716975  0.31560638  0.28693352     0.06400
H1625       H  0.78782918  0.35322658  0.28390581     0.07300
C1626       C  0.65752487  0.15108885  0.32347840    -0.22300
C1627       C  0.65231684  0.15737896  0.36631529     0.09600
C1628       C  0.66928894  0.18659675  0.38296728     0.10000
C1629       C  0.69107707  0.20905625  0.35613572    -0.17200
C1630       C  0.69654468  0.20299365  0.31302454    -0.27700
C1631       C  0.67945425  0.17342264  0.29653497     0.18400
C1632       C  0.63052560  0.13262767  0.39448641     0.12300
C1633       C  0.66469477  0.19391037  0.42935320    -0.12000
H1634       H  0.70400036  0.23150426  0.36904394     0.12600
C1635       C  0.68486513  0.16468194  0.25154253    -0.22900
H1636       H  0.64463572  0.12839360  0.31139733     0.08300
C1637       C  0.60042279  0.12503553  0.39702528     0.04600
C1638       C  0.58145481  0.10312839  0.42729949    -0.20100
C1639       C  0.59158938  0.08778727  0.45419954    -0.12400
C1640       C  0.62177224  0.09471513  0.44971287     0.13300
C1641       C  0.64070512  0.11713965  0.42013739    -0.22800
C1642       C  0.58845461  0.14017643  0.36788430    -0.05900
H1643       H  0.55863512  0.09827085  0.43022009     0.14800
C1644       C  0.63489421  0.07952037  0.47645107    -0.16100
H1645       H  0.66389195  0.12306509  0.41738971     0.09200
H1646       H  0.67891974  0.17584681  0.22549007     0.07000
H1647       H  0.67105797  0.14026463  0.24592294     0.08200
H1648       H  0.70862396  0.17090263  0.24826100     0.07300
H1649       H  0.66916940  0.18034867  0.45322805     0.02100
H1650       H  0.64137408  0.18892584  0.43353107     0.02600
H1651       H  0.67981946  0.21782636  0.43723626     0.06100
H1652       H  0.56422951  0.13102123  0.37305307     0.05100
H1653       H  0.59187674  0.13669689  0.33272997    -0.00700
H1654       H  0.60020882  0.16446041  0.37491329     0.00800
H1655       H  0.62338567  0.05546688  0.46807679     0.04500
H1656       H  0.63277681  0.08260969  0.51223919     0.06400
H1657       H  0.65896637  0.08873394  0.46935438     0.07300
C1658       C  0.74485719  0.27294676  0.09747423    -0.22300
C1659       C  0.73614758  0.24552542  0.07713197     0.09600
C1660       C  0.72856997  0.22016582  0.10321325     0.10000
C1661       C  0.72987601  0.22282644  0.14929852    -0.17200
C1662       C  0.73884205  0.25032185  0.16997717    -0.27700
C1663       C  0.74601740  0.27569048  0.14361252     0.18400
C1664       C  0.73594359  0.24416033  0.02837146     0.12300
C1665       C  0.71948175  0.19043669  0.08237949    -0.12000
H1666       H  0.72447254  0.20339719  0.16932865     0.12600
C1667       C  0.75387641  0.30565536  0.16249819    -0.22900
H1668       H  0.75050120  0.29231462  0.07711956     0.08300
C1669       C  0.71070307  0.23874001  0.00353246     0.04600
C1670       C  0.71218757  0.23893861  0.95724114    -0.20100
C1671       C  0.73843196  0.24466460  0.93541932    -0.12400
C1672       C  0.76331368  0.24888955  0.96055593     0.13300
C1673       C  0.76180314  0.24892306  0.00672601    -0.22800
C1674       C  0.68245880  0.23324529  0.02591182    -0.05900
H1675       H  0.69311669  0.23555824  0.93800222     0.14800
C1676       C  0.79146987  0.25252855  0.94013079    -0.16100
H1677       H  0.78094564  0.25256942  0.02608970     0.09200
H1678       H  0.73872470  0.31289921  0.14849677     0.07000
H1679       H  0.77717614  0.32234311  0.15347931     0.08200
H1680       H  0.75153088  0.30547456  0.19877181     0.07300
H1681       H  0.73786013  0.19233750  0.06130367     0.02100
H1682       H  0.69930514  0.18321184  0.06178406     0.02600
H1683       H  0.71432325  0.17290371  0.10758686     0.06100
H1684       H  0.66486193  0.22949377  0.00163362     0.05100
H1685       H  0.68704934  0.25282992  0.04639954    -0.00700
H1686       H  0.67377521  0.21320723  0.04736501     0.00800
H1687       H  0.81045922  0.27500601  0.94799906     0.04500
H1688       H  0.79004458  0.24957472  0.90388802     0.06400
H1689       H  0.79613699  0.23542627  0.95396514     0.07300
C1690       C  0.72080612  0.72774643  0.28710464     0.80300
N1691       N  0.74535387  0.74957115  0.30784078    -0.78000
C1692       C  0.76758359  0.77210564  0.28430366     0.82800
N1693       N  0.76540983  0.77276527  0.23968814    -0.77900
C1694       C  0.74077514  0.75129506  0.21871085     0.82900
N1695       N  0.71875494  0.72889222  0.24260433    -0.79600
C1696       C  0.71942119  0.72949737  0.81649436     0.80300
N1697       N  0.74235371  0.75428689  0.79798297    -0.78000
C1698       C  0.76386394  0.77593941  0.82333985     0.82800
N1699       N  0.76260688  0.77248655  0.86780945    -0.77900
C1700       C  0.73970538  0.74789299  0.88690263     0.82900
N1701       N  0.71793720  0.72658753  0.86119057    -0.79600
C1702       C  0.73802797  0.95982990  0.28825901     0.80300
N1703       N  0.73867143  0.95917206  0.24345216    -0.78000
C1704       C  0.71724706  0.96038293  0.21918013     0.82800
N1705       N  0.69466927  0.96159229  0.24004112    -0.77900
C1706       C  0.69345238  0.96166013  0.28478426     0.82900
N1707       N  0.71516506  0.96074754  0.30883042    -0.79600
C1708       C  0.73444057  0.95654745  0.81653839     0.80300
N1709       N  0.73530075  0.95373992  0.86100254    -0.78000
C1710       C  0.71294753  0.95153249  0.88703139     0.82800
N1711       N  0.68933376  0.95183829  0.86802378    -0.77900
C1712       C  0.68814492  0.95451370  0.82357923     0.82900
N1713       N  0.71053020  0.95643304  0.79796396    -0.79600
C1714       C  0.99731087  0.74279898  0.28993846     0.80300
N1715       N  0.00126207  0.74495320  0.24554996    -0.78000
C1716       C  0.00162982  0.72281547  0.22217907     0.82800
N1717       N  0.99802749  0.69822832  0.24403331    -0.77900
C1718       C  0.99388466  0.69561201  0.28847520     0.82900
N1719       N  0.99398147  0.71821223  0.31130583    -0.79600
C1720       C  0.00442257  0.74512634  0.82105885     0.80300
N1721       N  0.00577342  0.74611146  0.86586203    -0.78000
C1722       C  0.00817940  0.72490108  0.88897659     0.82800
N1723       N  0.00865937  0.70227623  0.86708902    -0.77900
C1724       C  0.00802866  0.70148676  0.82231153     0.82900
N1725       N  0.00599515  0.72298434  0.79950386    -0.79600
O1726       O  0.91502400  0.49466829  0.50735926    -0.88100
C1727       C  0.57035525  0.56829914  0.61585415     1.12000
O1728       O  0.95534788  0.97500891  0.55486985    -1.35900
O1729       O  0.54848535  0.56864354  0.50010842    -0.89500
O1730       O  0.89490441  0.94500785  0.50504128    -0.90200
O1731       O  0.95693349  0.94287718  0.46373339    -0.79000
O1732       O  0.98191618  0.53243155  0.51068901    -1.01100
C1733       C  0.54338947  0.98017560  0.47396643     1.22000
O1734       O  0.98977950  0.94741381  0.55640575    -1.36000
Mn1735     Mn  0.98810114  0.97827387  0.60239153     1.82100
O1736       O  0.51915984  0.97783924  0.46165278    -0.78100
O1737       O  0.57692452  0.54776198  0.50539861    -0.87500
C1738       C  0.54357761  0.98097989  0.63566778     1.13100
C1739       C  0.57094740  0.56654855  0.48829743     1.07800
O1740       O  0.95860404  0.94795125  0.64904981    -0.79000
O1741       O  0.51734655  0.50950770  0.55329993    -1.32700
O1742       O  0.93111990  0.91796392  0.59982054    -0.98200
C1743       C  0.99247387  0.89236276  0.49572700     1.06600
Mn1744     Mn  0.56069625  0.51506269  0.55464701     1.48600
O1745       O  0.96783068  0.88627197  0.51333443    -0.87400
Mn1746     Mn  0.91455306  0.93348008  0.55601513     1.49600
O1747       O  0.91792511  0.49703307  0.60559046    -0.91300
C1748       C  0.98182421  0.52714917  0.47142095     1.19700
C1749       C  0.89780325  0.97136440  0.61872054     1.11800
Mn1750     Mn  0.98714242  0.97627153  0.50698625     1.81000
O1751       O  0.54822150  0.98162852  0.59623859    -0.96500
Mn1752     Mn  0.94957876  0.51287322  0.55436870     1.49300
C1753       C  0.89610694  0.96901758  0.49251849     1.08300
Mn1754     Mn  0.53106176  0.94801815  0.55526185     1.49900
C1755       C  0.99528468  0.89632451  0.62383551     1.11200
O1756       O  0.93133060  0.91569543  0.51684765    -1.02300
O1757       O  0.57618899  0.54822512  0.60393088    -0.91900
C1758       C  0.93489535  0.91903339  0.47708579     1.22500
O1759       O  0.54774648  0.98140424  0.51355069    -1.02700
O1760       O  0.54978301  0.57140125  0.59836122    -0.90100
O1761       O  0.51885104  0.91608926  0.60492166    -0.89700
O1762       O  0.89446749  0.94718292  0.60289507    -0.89700
Mn1763     Mn  0.51651019  0.55026427  0.55066265     1.47900
O1764       O  0.52010949  0.98038188  0.64749407    -0.78200
C1765       C  0.93544236  0.92429554  0.63889915     1.15600
O1766       O  0.98417604  0.50504916  0.46067853    -0.76900
O1767       O  0.98714596  0.50910310  0.64565911    -0.76500
Mn1768     Mn  0.95175669  0.90408213  0.56039643     1.51100
O1769       O  0.51716432  0.91507158  0.50646505    -0.88900
O1770       O  0.98402692  0.53496600  0.59401126    -0.96400
O1771       O  0.96921698  0.89019737  0.61205583    -0.91400
C1772       C  0.98610069  0.53165213  0.63356206     1.13400
C1773       C  0.00611710  0.58285512  0.73417208    -0.22300
C1774       C  0.99615424  0.60215554  0.72028538     0.09600
C1775       C  0.98178108  0.59744252  0.67915542     0.10000
C1776       C  0.97851247  0.57405928  0.65212858    -0.17200
C1777       C  0.98875023  0.55473802  0.66544363    -0.27700
C1778       C  0.00230337  0.55895888  0.70760758     0.18400
C1779       C  0.00072204  0.62714665  0.74926441     0.12300
C1780       C  0.96955234  0.61690878  0.66402546    -0.12000
H1781       H  0.96771919  0.57079149  0.62033790     0.12600
C1782       C  0.51335014  0.53893600  0.72472523    -0.22900
H1783       H  0.51693179  0.58656911  0.76601935     0.08300
C1784       C  0.98191283  0.62252891  0.78563663     0.04600
C1785       C  0.98565192  0.64720725  0.81001063    -0.20100
C1786       C  0.00759628  0.67638825  0.79855305    -0.12400
C1787       C  0.02726565  0.68083914  0.76320061     0.13300
C1788       C  0.02344189  0.65613556  0.73888601    -0.22800
C1789       C  0.95732918  0.59166779  0.79776885    -0.05900
H1790       H  0.97066692  0.64380177  0.83717597     0.14800
C1791       C  0.55289506  0.71110104  0.75077272    -0.16100
H1792       H  0.53814510  0.65951917  0.71132715     0.09200
H1793       H  0.99436270  0.51583098  0.72855584     0.07000
H1794       H  0.52428462  0.54630461  0.75743630     0.08200
H1795       H  0.52992850  0.53913934  0.70148075     0.07300
H1796       H  0.98789542  0.64038397  0.66095680     0.02100
H1797       H  0.95295372  0.61569275  0.68831675     0.02600
H1798       H  0.95836359  0.60977647  0.63145014     0.06100
H1799       H  0.94425212  0.59203927  0.82651698     0.05100
H1800       H  0.96696812  0.57743781  0.80643385    -0.00700
H1801       H  0.94186080  0.58158200  0.76945305     0.00800
H1802       H  0.57399768  0.71049947  0.75171334     0.04500
H1803       H  0.55567900  0.72906125  0.77341903     0.06400
H1804       H  0.54950641  0.71690047  0.71680354     0.07300
C1805       C  0.98281307  0.84812770  0.72594723    -0.22300
C1806       C  0.00333092  0.83859302  0.71795508     0.09600
C1807       C  0.02282848  0.85018250  0.68163724     0.10000
C1808       C  0.52036602  0.86997527  0.65273589    -0.17200
C1809       C  0.99881922  0.87850268  0.65921895    -0.27700
C1810       C  0.98076287  0.86851405  0.69760574     0.18400
C1811       C  0.00283398  0.81502452  0.74622503     0.12300
C1812       C  0.54572813  0.84105655  0.67278048    -0.12000
H1813       H  0.53463570  0.87791789  0.62388587     0.12600
C1814       C  0.96009253  0.87966381  0.71074810    -0.22900
H1815       H  0.96834721  0.83963585  0.75455471     0.08300
C1816       C  0.01987810  0.82170399  0.78513709     0.04600
C1817       C  0.01939209  0.79834583  0.80949914    -0.20100
C1818       C  0.00205764  0.76845255  0.79591810    -0.12400
C1819       C  0.98386133  0.76184989  0.75785983     0.13300
C1820       C  0.98505457  0.78530262  0.73309257    -0.22800
C1821       C  0.53876734  0.85345536  0.80053040    -0.05900
H1822       H  0.53314853  0.80353430  0.83876967     0.14800
C1823       C  0.96192238  0.73053157  0.74314648    -0.16100
H1824       H  0.97160614  0.78034516  0.70351735     0.09200
H1825       H  0.96505646  0.88815295  0.74512955     0.07000
H1826       H  0.93660621  0.86117358  0.70901126     0.08200
H1827       H  0.96290722  0.89844004  0.68996128     0.07300
H1828       H  0.53445864  0.81661152  0.66725965     0.02100
H1829       H  0.56099103  0.84693587  0.70143237     0.02600
H1830       H  0.55938043  0.85242394  0.64316443     0.06100
H1831       H  0.55076295  0.85484012  0.83159577     0.05100
H1832       H  0.52440286  0.86331392  0.80660158    -0.00700
H1833       H  0.55557988  0.86680465  0.77498415     0.00800
H1834       H  0.93969240  0.72837338  0.73827283     0.04500
H1835       H  0.95865328  0.71324461  0.76754629     0.06400
H1836       H  0.96939225  0.72585889  0.71135960     0.07300
C1837       C  0.97067744  0.61532119  0.32054987    -0.22300
C1838       C  0.98590218  0.61991025  0.36054603     0.09600
C1839       C  0.50340850  0.64917185  0.37673260     0.10000
C1840       C  0.50528347  0.67320732  0.35251419    -0.17200
C1841       C  0.99021492  0.66886540  0.31236633    -0.27700
C1842       C  0.97209188  0.63927064  0.29658599     0.18400
C1843       C  0.98209596  0.59367121  0.38598548     0.12300
C1844       C  0.52071876  0.65521745  0.41916163    -0.12000
H1845       H  0.51913465  0.69572396  0.36476785     0.12600
C1846       C  0.95261930  0.63161855  0.25617700    -0.22900
H1847       H  0.95672976  0.59270613  0.30867872     0.08300
C1848       C  0.96257810  0.58254315  0.42242289     0.04600
C1849       C  0.96240938  0.56022288  0.44889732    -0.20100
C1850       C  0.98002504  0.54747506  0.43848019    -0.12400
C1851       C  0.99722480  0.55650102  0.39927025     0.13300
C1852       C  0.99851457  0.57997234  0.37398197    -0.22800
C1853       C  0.94158963  0.59386734  0.43296536    -0.05900
H1854       H  0.94850149  0.55276647  0.47813627     0.14800
C1855       C  0.01482741  0.54213847  0.38454493    -0.16100
H1856       H  0.01268101  0.58796820  0.34502970     0.09200
H1857       H  0.92939833  0.61451677  0.26491787     0.07000
H1858       H  0.96085269  0.62235806  0.23036015     0.08200
H1859       H  0.95143786  0.65073548  0.24231816     0.07300
H1860       H  0.53634510  0.64656517  0.41683416     0.02100
H1861       H  0.50539276  0.64414902  0.44727887     0.02600
H1862       H  0.53392296  0.67946357  0.42643508     0.06100
H1863       H  0.92745042  0.58232434  0.46211109     0.05100
H1864       H  0.92664509  0.58984570  0.40436943    -0.00700
H1865       H  0.45354547  0.61764926  0.43986147     0.00800
H1866       H  0.99938391  0.51821194  0.37723443     0.04500
H1867       H  0.03058646  0.54396593  0.41073621     0.06400
H1868       H  0.52829236  0.55324384  0.35457214     0.07300
C1869       C  0.97450838  0.82242465  0.43020522    -0.22300
C1870       C  0.99695770  0.83425698  0.39818283     0.09600
C1871       C  0.51702934  0.86520054  0.39682694     0.10000
C1872       C  0.51473277  0.88366590  0.42857640    -0.17200
C1873       C  0.99255685  0.87189925  0.46142905    -0.27700
C1874       C  0.97191592  0.84070569  0.46184817     0.18400
C1875       C  0.99964567  0.81321228  0.36818482     0.12300
C1876       C  0.54099493  0.87864576  0.36216646    -0.12000
H1877       H  0.53045074  0.90743977  0.42779972     0.12600
C1878       C  0.94780143  0.82608292  0.49632410    -0.22900
H1879       H  0.95924716  0.79851895  0.43088423     0.08300
C1880       C  0.51570872  0.79914094  0.38083709     0.04600
C1881       C  0.51460841  0.77648874  0.35426795    -0.20100
C1882       C  0.99777105  0.76744069  0.31534086    -0.12400
C1883       C  0.98182140  0.78189437  0.30237401     0.13300
C1884       C  0.98331280  0.80484093  0.32883813    -0.22800
C1885       C  0.53371319  0.80778075  0.42279648    -0.05900
H1886       H  0.52697582  0.76566123  0.36411874     0.14800
C1887       C  0.96157888  0.77284155  0.26267674    -0.16100
H1888       H  0.97059827  0.81544164  0.31969117     0.09200
H1889       H  0.93514649  0.80141275  0.49288233     0.07000
H1890       H  0.93155712  0.83394124  0.49286709     0.08200
H1891       H  0.95782631  0.83132720  0.52981627     0.07300
H1892       H  0.03059349  0.87431264  0.32885687     0.02100
H1893       H  0.55560503  0.86875163  0.36425700     0.02600
H1894       H  0.55514195  0.90308810  0.36655225     0.06100
H1895       H  0.54507835  0.79466661  0.42775182     0.05100
H1896       H  0.51890620  0.80377388  0.45154810    -0.00700
H1897       H  0.55102266  0.83176620  0.42161068     0.00800
H1898       H  0.93903861  0.76795112  0.27312716     0.04500
H1899       H  0.95856940  0.75255119  0.24609300     0.06400
H1900       H  0.97054469  0.79145134  0.23843995     0.07300
C1901       C  0.01820585  0.75103984  0.10263502    -0.22300
C1902       C  0.00606977  0.72406050  0.07964923     0.09600
C1903       C  0.99319345  0.69695968  0.10319049     0.10000
C1904       C  0.99253001  0.69743111  0.14944796    -0.17200
C1905       C  0.00415137  0.72440123  0.17303259    -0.27700
C1906       C  0.01733046  0.75170627  0.14894736     0.18400
C1907       C  0.00666359  0.72472995  0.03077863     0.12300
C1908       C  0.97967882  0.66752648  0.07938460    -0.12000
H1909       H  0.98225422  0.67641171  0.16717840     0.12600
C1910       C  0.53091191  0.78168423  0.17119044    -0.22900
H1911       H  0.52811759  0.77168094  0.08405453     0.08300
C1912       C  0.98536873  0.72804765  0.00628676     0.04600
C1913       C  0.98682936  0.72862584  0.96001960    -0.20100
C1914       C  0.00899981  0.72578008  0.93771939    -0.12400
C1915       C  0.53074449  0.72310989  0.96248020     0.13300
C1916       C  0.52904529  0.72229869  0.00872012    -0.22800
C1917       C  0.96083879  0.73044226  0.02903531    -0.05900
H1918       H  0.97020692  0.73069966  0.94110565     0.14800
C1919       C  0.55671614  0.72227061  0.94165018    -0.16100
H1920       H  0.54559357  0.72017835  0.02779300     0.09200
H1921       H  0.01343021  0.78434499  0.18802760     0.07000
H1922       H  0.54192607  0.80030037  0.14710305     0.08200
H1923       H  0.54808188  0.78399904  0.19527908     0.07300
H1924       H  0.99698892  0.66642346  0.05930407     0.02100
H1925       H  0.96149967  0.66518143  0.05737939     0.02600
H1926       H  0.97016496  0.64837896  0.10271278     0.06100
H1927       H  0.94576985  0.73246531  0.00500058     0.05100
H1928       H  0.97058813  0.75044266  0.05055847    -0.00700
H1929       H  0.94730351  0.71023130  0.04947301     0.00800
H1930       H  0.57786455  0.74038910  0.95571696     0.04500
H1931       H  0.55810692  0.72565661  0.90548161     0.06400
H1932       H  0.55511266  0.70050514  0.94892008     0.07300
C1933       C  0.79367685  0.48067318  0.72651405    -0.22300
C1934       C  0.80594600  0.96266691  0.73637934     0.09600
C1935       C  0.79540327  0.94339519  0.77315719     0.10000
C1936       C  0.77230417  0.94218462  0.79893387    -0.17200
C1937       C  0.75957205  0.95991180  0.78887375    -0.27700
C1938       C  0.77109523  0.48009579  0.75273576     0.18400
C1939       C  0.82960199  0.96418256  0.70725963     0.12300
C1940       C  0.80842976  0.92401562  0.78491716    -0.12000
H1941       H  0.76382701  0.92695675  0.82672173     0.12600
C1942       C  0.76145313  0.50241350  0.74177169    -0.22900
H1943       H  0.80222708  0.49574177  0.69850850     0.08300
C1944       C  0.82243784  0.94559439  0.67004838     0.04600
C1945       C  0.84540776  0.94812442  0.64277159    -0.20100
C1946       C  0.87548472  0.96896960  0.65151876    -0.12400
C1947       C  0.88266591  0.98720967  0.68956222     0.13300
C1948       C  0.85952953  0.98476244  0.71663252    -0.22800
C1949       C  0.79049668  0.92341314  0.65877578    -0.05900
H1950       H  0.83974154  0.93420678  0.61363843     0.14800
C1951       C  0.91420084  0.50857376  0.70373732    -0.16100
H1952       H  0.86487874  0.49880002  0.74558895     0.09200
H1953       H  0.74925893  0.49638547  0.70990206     0.07000
H1954       H  0.78144675  0.52497148  0.73856914     0.08200
H1955       H  0.74739257  0.50431681  0.76747559     0.07300
H1956       H  0.83263717  0.93823159  0.79169823     0.02100
H1957       H  0.80529063  0.90874985  0.75719072     0.02600
H1958       H  0.79766299  0.91022535  0.81467971     0.06100
H1959       H  0.78879143  0.91067891  0.62842366     0.05100
H1960       H  0.77792770  0.93527161  0.65322496    -0.00700
H1961       H  0.77998104  0.90723675  0.68623845     0.00800
H1962       H  0.91844219  0.53179985  0.70240805     0.04500
H1963       H  0.93095586  0.50701980  0.68325257     0.06400
H1964       H  0.91750776  0.50341710  0.73815553     0.07300
C1965       C  0.61170311  0.98372365  0.68922426    -0.22300
C1966       C  0.59915377  0.96714403  0.72757817     0.09600
C1967       C  0.56892350  0.95671103  0.73721078     0.10000
C1968       C  0.55168283  0.96262553  0.70741128    -0.17200
C1969       C  0.56396726  0.97858221  0.66795825    -0.27700
C1970       C  0.59482651  0.98981472  0.65937900     0.18400
C1971       C  0.61856743  0.96089435  0.75621811     0.12300
C1972       C  0.55480503  0.93873454  0.77826288    -0.12000
H1973       H  0.52820770  0.95382070  0.71428864     0.12600
C1974       C  0.61165581  0.50895704  0.62027938    -0.22900
H1975       H  0.63511903  0.49200746  0.68245107     0.08300
C1976       C  0.62546305  0.93866109  0.74486288     0.04600
C1977       C  0.64769853  0.93662259  0.76838902    -0.20100
C1978       C  0.66330176  0.95638813  0.80291382    -0.12400
C1979       C  0.65592818  0.47836641  0.81485133     0.13300
C1980       C  0.63336610  0.48004241  0.79159396    -0.22800
C1981       C  0.60966690  0.91746570  0.70736504    -0.05900
H1982       H  0.65334981  0.91984475  0.75925895     0.14800
C1983       C  0.67246680  0.50168865  0.84971259    -0.16100
H1984       H  0.62834709  0.49743634  0.79961552     0.09200
H1985       H  0.61995385  0.49693996  0.59972701     0.07000
H1986       H  0.63111309  0.53000445  0.63215366     0.08200
H1987       H  0.59873731  0.51557877  0.59917354     0.07300
H1988       H  0.56637039  0.95218972  0.80785420     0.02100
H1989       H  0.55663273  0.91830408  0.77801473     0.02600
H1990       H  0.53082104  0.93184952  0.78062321     0.06100
H1991       H  0.61715093  0.90092890  0.70349378     0.05100
H1992       H  0.61415138  0.93005161  0.67594388    -0.00700
H1993       H  0.58528391  0.90514727  0.71363957     0.00800
H1994       H  0.68150194  0.52424165  0.83496372     0.04500
H1995       H  0.69156756  0.50074838  0.86411847     0.06400
H1996       H  0.65687752  0.49905777  0.87673410     0.07300
C1997       C  0.83276704  0.97509570  0.43957575    -0.22300
C1998       C  0.82929147  0.96039653  0.39940506     0.09600
C1999       C  0.84788861  0.94850734  0.38970616     0.10000
C2000       C  0.86968742  0.95174105  0.42050754    -0.17200
C2001       C  0.87337793  0.96676607  0.46064962    -0.27700
C2002       C  0.85415406  0.97804179  0.47062875     0.18400
C2003       C  0.80598872  0.95806720  0.36833817     0.12300
C2004       C  0.84451321  0.93224851  0.34710205    -0.12000
H2005       H  0.88398028  0.94260041  0.41320061     0.12600
C2006       C  0.85432337  0.49195387  0.51442222    -0.22900
H2007       H  0.81815960  0.48383152  0.44717666     0.08300
C2008       C  0.77557092  0.93672631  0.37442530     0.04600
C2009       C  0.75395912  0.93779675  0.34762995    -0.20100
C2010       C  0.76204596  0.95957478  0.31457515    -0.12400
C2011       C  0.79269986  0.98061695  0.30794493     0.13300
C2012       C  0.81420041  0.97939517  0.33475057    -0.22800
C2013       C  0.76597931  0.91283773  0.40919966    -0.05900
H2014       H  0.73058477  0.92153933  0.35249922     0.14800
C2015       C  0.80370017  0.50567428  0.27476648    -0.16100
H2016       H  0.83755353  0.99594754  0.33048623     0.09200
H2017       H  0.83176809  0.47951171  0.52946599     0.07000
H2018       H  0.86013872  0.51547801  0.50917250     0.08200
H2019       H  0.87006964  0.49157480  0.53868824     0.07300
H2020       H  0.84846802  0.94741473  0.31878046     0.02100
H2021       H  0.82162953  0.91270034  0.34475165     0.02600
H2022       H  0.86063745  0.92414777  0.34482086     0.06100
H2023       H  0.74144006  0.89762305  0.40916607     0.05100
H2024       H  0.77260142  0.92318107  0.44234554    -0.00700
H2025       H  0.77674805  0.89930813  0.40296291     0.00800
H2026       H  0.81726355  0.52732522  0.29190873     0.04500
H2027       H  0.78561978  0.00693965  0.25737435     0.06400
H2028       H  0.81791268  0.00304111  0.24988841     0.07300
C2029       C  0.62615205  0.94426503  0.35607897    -0.22300
C2030       C  0.62538502  0.97087318  0.35233798     0.09600
C2031       C  0.64665673  0.99411878  0.32541898     0.10000
C2032       C  0.66789306  0.98998791  0.30240071    -0.17200
C2033       C  0.66910544  0.96364060  0.30707014    -0.27700
C2034       C  0.64770338  0.94032844  0.33385790     0.18400
C2035       C  0.60462750  0.97503510  0.38142750     0.12300
C2036       C  0.64797719  0.52379500  0.32280971    -0.12000
H2037       H  0.68439976  0.00786747  0.28199595     0.12600
C2038       C  0.64674822  0.91095720  0.33954281    -0.22900
H2039       H  0.61022119  0.92665317  0.37741910     0.08300
C2040       C  0.57637500  0.96960343  0.36732879     0.04600
C2041       C  0.55722138  0.97220310  0.39778747    -0.20100
C2042       C  0.56535422  0.97953566  0.44237536    -0.12400
C2043       C  0.59394125  0.98487651  0.45611668     0.13300
C2044       C  0.61306218  0.98283598  0.42535522    -0.22800
C2045       C  0.56620639  0.46055788  0.32046054    -0.05900
H2046       H  0.53553082  0.46785145  0.38683731     0.14800
C2047       C  0.60473857  0.99217594  0.50317038    -0.16100
H2048       H  0.63470190  0.98667002  0.43587582     0.09200
H2049       H  0.62458408  0.89251422  0.32906490     0.07000
H2050       H  0.65021006  0.90773811  0.37482699     0.08200
H2051       H  0.66385893  0.90935511  0.31979475     0.07300
H2052       H  0.65165330  0.03379583  0.35606754     0.02100
H2053       H  0.62680219  0.52089879  0.30942699     0.02600
H2054       H  0.66638057  0.53971524  0.30106586     0.06100
H2055       H  0.54311328  0.45608682  0.31534267     0.05100
H2056       H  0.56671231  0.93992596  0.31211421    -0.00700
H2057       H  0.58104211  0.47852055  0.29737105     0.00800
H2058       H  0.62791398  0.99659523  0.50699261     0.04500
H2059       H  0.59037204  0.97306176  0.52503124     0.06400
H2060       H  0.60453839  0.01244199  0.51425188     0.07300
C2061       C  0.74133894  0.96566787  0.00580197    -0.22300
C2062       C  0.71458107  0.94976449  0.02915332     0.09600
C2063       C  0.68754675  0.93335200  0.00599224     0.10000
C2064       C  0.68784881  0.93369862  0.95966517    -0.17200
C2065       C  0.71459593  0.95008645  0.93588786    -0.27700
C2066       C  0.74181244  0.96610815  0.95948887     0.18400
C2067       C  0.71538480  0.95211937  0.07786692     0.12300
C2068       C  0.65842335  0.91573200  0.03023268    -0.12000
H2069       H  0.66699613  0.92130077  0.94190393     0.12600
C2070       C  0.77132524  0.48492699  0.93659386    -0.22900
H2071       H  0.76193935  0.47833573  0.02408669     0.08300
C2072       C  0.72232562  0.93420935  0.10474993     0.04600
C2073       C  0.72326242  0.93777363  0.15076317    -0.20100
C2074       C  0.71790588  0.95919926  0.17040033    -0.12400
C2075       C  0.71250420  0.97820346  0.14301821     0.16000
C2076       C  0.71063119  0.97389569  0.09719727    -0.22800
C2077       C  0.72858849  0.91132246  0.08481003    -0.05900
H2078       H  0.72778140  0.92345233  0.17156889     0.14800
C2079       C  0.71023033  0.50423074  0.16037643    -0.16100
H2080       H  0.70625562  0.48823128  0.07618232     0.09200
H2081       H  0.77713957  0.47052258  0.91694953     0.07000
H2082       H  0.78972753  0.49732775  0.96049495     0.08200
H2083       H  0.77015858  0.50156788  0.91481176     0.07300
H2084       H  0.65426946  0.93090880  0.05095957     0.02100
H2085       H  0.65929839  0.89879167  0.05167621     0.02600
H2086       H  0.63936547  0.90396503  0.00715162     0.06100
H2087       H  0.73349553  0.89906601  0.11048786     0.05100
H2088       H  0.74818586  0.92247839  0.06252325    -0.00700
H2089       H  0.70893526  0.89487620  0.06563113     0.00800
H2090       H  0.72667002  0.52490870  0.14297601     0.04500
H2091       H  0.71521415  0.50831982  0.19601454     0.06400
H2092       H  0.68750464  0.50047000  0.15412378     0.07300
C2093       C  0.81206671  0.84036535  0.74612379    -0.22300
C2094       C  0.84062380  0.84619334  0.75800547     0.09600
C2095       C  0.84403519  0.83101608  0.79420861     0.10000
C2096       C  0.81856302  0.80918402  0.81637783    -0.17200
C2097       C  0.78980148  0.80173333  0.80240793    -0.27700
C2098       C  0.78654171  0.81806854  0.76750905     0.18400
C2099       C  0.86606632  0.86581120  0.72898500     0.12300
C2100       C  0.87441892  0.83698332  0.80819248    -0.12000
H2101       H  0.82106801  0.79685399  0.84337837     0.12600
C2102       C  0.75632766  0.81228384  0.75278232    -0.22900
H2103       H  0.80973054  0.85245367  0.71861873     0.08300
C2104       C  0.86945952  0.85559033  0.68752526     0.04600
C2105       C  0.89263037  0.87506406  0.65960396    -0.20100
C2106       C  0.91304326  0.90453718  0.67220646    -0.12400
C2107       C  0.91044038  0.91431722  0.71486688     0.13300
C2108       C  0.88672227  0.89485644  0.74249068    -0.22800
C2109       C  0.84875606  0.82395639  0.67283102    -0.05900
H2110       H  0.89474212  0.86711767  0.62750373     0.14800
C2111       C  0.93200508  0.94521529  0.73136013    -0.16100
H2112       H  0.88406829  0.90236397  0.77463075     0.09200
H2113       H  0.75817391  0.82848178  0.72714494     0.07000
H2114       H  0.74406363  0.81432562  0.78132376     0.08200
H2115       H  0.74333344  0.78964188  0.73836929     0.07300
H2116       H  0.88836106  0.86066189  0.81822959     0.02100
H2117       H  0.88540185  0.83234190  0.78035549     0.02600
H2118       H  0.87307063  0.82274989  0.83656141     0.06100
H2119       H  0.85516267  0.81938931  0.64005561     0.05100
H2120       H  0.82561322  0.81973273  0.67028070    -0.00700
H2121       H  0.84941888  0.80818067  0.69703289     0.00800
H2122       H  0.92605031  0.94910925  0.76490505     0.04500
H2123       H  0.93192053  0.96209293  0.70891127     0.06400
H2124       H  0.95479237  0.94835082  0.73310347     0.07300
C2125       C  0.68192002  0.67355006  0.72319081    -0.22300
C2126       C  0.65196501  0.65975973  0.73590042     0.09600
C2127       C  0.64411198  0.66845913  0.77538017     0.10000
C2128       C  0.66656301  0.69115207  0.80118822    -0.17200
C2129       C  0.69665002  0.70552385  0.78812074    -0.27700
C2130       C  0.70441167  0.69629933  0.74868830     0.18400
C2131       C  0.62934370  0.63619559  0.70706169     0.12300
C2132       C  0.61205455  0.65386471  0.78998772    -0.12000
H2133       H  0.66054460  0.69798841  0.83142194     0.12600
C2134       C  0.73635238  0.70940969  0.73389866    -0.22900
H2135       H  0.68767618  0.66642420  0.69299064     0.08300
C2136       C  0.61721228  0.64332345  0.67060041     0.04600
C2137       C  0.59736535  0.62045896  0.64246976    -0.20100
C2138       C  0.58935222  0.59050726  0.64973413    -0.12400
C2139       C  0.60063839  0.58335457  0.68767673     0.13300
C2140       C  0.62084230  0.60638147  0.71534991    -0.22800
C2141       C  0.62556036  0.67512884  0.66106812    -0.05900
H2142       H  0.58873105  0.62617952  0.61381439     0.14800
C2143       C  0.59123951  0.55193029  0.70134328    -0.16100
H2144       H  0.62994158  0.60102592  0.74386255     0.09200
H2145       H  0.74577587  0.73319948  0.72471111     0.07000
H2146       H  0.73826034  0.69773286  0.70447641     0.08200
H2147       H  0.74980587  0.70737157  0.76075353     0.07300
H2148       H  0.60303208  0.62957644  0.79480360     0.02100
H2149       H  0.59859853  0.65722711  0.76454305     0.02600
H2150       H  0.60969142  0.66332935  0.82155392     0.06100
H2151       H  0.61397760  0.67683765  0.63132669     0.05100
H2152       H  0.64995257  0.68884297  0.65535082    -0.00700
H2153       H  0.61934990  0.68435827  0.68950752     0.00800
H2154       H  0.61066513  0.54845292  0.69988680     0.04500
H2155       H  0.57310914  0.53509474  0.68074364     0.06400
H2156       H  0.58270544  0.54809060  0.73574265     0.07300
C2157       C  0.86689792  0.84968496  0.42997487    -0.22300
C2158       C  0.86975801  0.85650164  0.38496822     0.09600
C2159       C  0.89468436  0.88304534  0.36979589     0.10000
C2160       C  0.91589071  0.90262470  0.40037810    -0.17200
C2161       C  0.91277415  0.89635253  0.44596633    -0.27700
C2162       C  0.88795074  0.86899575  0.46072136     0.18400
C2163       C  0.84538929  0.83585480  0.35513720     0.12300
C2164       C  0.89894469  0.89053552  0.32135608    -0.12000
H2165       H  0.93478000  0.92320072  0.38852354     0.12600
C2166       C  0.88286157  0.85965237  0.50862791    -0.22900
H2167       H  0.84762576  0.82919687  0.44116662     0.08300
C2168       C  0.84131583  0.80758424  0.34408873     0.04600
C2169       C  0.81591194  0.78745353  0.32013301    -0.20100
C2170       C  0.79453188  0.79493240  0.30708368    -0.12400
C2171       C  0.79887095  0.82344208  0.31742420     0.13300
C2172       C  0.82430014  0.84355234  0.34131057    -0.22800
C2173       C  0.86370292  0.79866417  0.35771498    -0.05900
H2174       H  0.81247866  0.76557094  0.31200829     0.14800
C2175       C  0.77676587  0.83302447  0.30506328    -0.16100
H2176       H  0.82724775  0.86508621  0.35042754     0.09200
H2177       H  0.86292580  0.83720029  0.51321505     0.07000
H2178       H  0.87910026  0.87555574  0.52817535     0.08200
H2179       H  0.90232251  0.85865403  0.52177904     0.07300
H2180       H  0.88000795  0.89259384  0.30855867     0.02100
H2181       H  0.90009654  0.87260144  0.30306341     0.02600
H2182       H  0.91983382  0.91192319  0.31491952     0.06100
H2183       H  0.85745843  0.77607429  0.34548525     0.05100
H2184       H  0.86515539  0.79839753  0.39422144    -0.00700
H2185       H  0.88594867  0.81481043  0.34403844     0.00800
H2186       H  0.76849975  0.83847533  0.33542461     0.04500
H2187       H  0.75721858  0.81560824  0.28690052     0.06400
H2188       H  0.78787153  0.85323160  0.28386907     0.07300
C2189       C  0.65736416  0.65114443  0.32330342    -0.22300
C2190       C  0.65238054  0.65735331  0.36631265     0.09600
C2191       C  0.66959266  0.68648829  0.38315456     0.10000
C2192       C  0.69137158  0.70895718  0.35632371    -0.17200
C2193       C  0.69661262  0.70298253  0.31302682    -0.27700
C2194       C  0.67929427  0.67347971  0.29636170     0.18400
C2195       C  0.63054720  0.63258786  0.39442398     0.12300
C2196       C  0.66526166  0.69370035  0.42973636    -0.12000
H2197       H  0.70446430  0.73134314  0.36938392     0.12600
C2198       C  0.68444423  0.66479231  0.25116480    -0.22900
H2199       H  0.64429226  0.62850526  0.31107580     0.08300
C2200       C  0.60052743  0.62523972  0.39729069     0.04600
C2201       C  0.58154437  0.60332240  0.42753994    -0.20100
C2202       C  0.59157165  0.58773212  0.45409640    -0.12400
C2203       C  0.62164389  0.59437391  0.44919454     0.13300
C2204       C  0.64060236  0.61682115  0.41966549    -0.22800
C2205       C  0.58866250  0.64064847  0.36852078    -0.05900
H2206       H  0.55879717  0.59865210  0.43070803     0.14800
C2207       C  0.63462400  0.57881786  0.47538233    -0.16100
H2208       H  0.66371599  0.62254100  0.41662981     0.09200
H2209       H  0.67852003  0.67612693  0.22535620     0.07000
H2210       H  0.67047142  0.64040609  0.24540861     0.08200
H2211       H  0.70814084  0.67084509  0.24761586     0.07300
H2212       H  0.66969215  0.67995341  0.45331035     0.02100
H2213       H  0.64201623  0.68887883  0.43422484     0.02600
H2214       H  0.68055804  0.71755857  0.43775983     0.06100
H2215       H  0.56448200  0.63165649  0.37389941     0.05100
H2216       H  0.59192328  0.63722685  0.33327319    -0.00700
H2217       H  0.60061019  0.66491407  0.37571356     0.00800
H2218       H  0.62280349  0.55478182  0.46685012     0.04500
H2219       H  0.63279553  0.58186330  0.51126738     0.06400
H2220       H  0.65860835  0.58777454  0.46790684     0.07300
C2221       C  0.74486005  0.77295598  0.09746040    -0.22300
C2222       C  0.73615146  0.74553282  0.07712424     0.09600
C2223       C  0.72858152  0.72017730  0.10321058     0.10000
C2224       C  0.72989311  0.72284355  0.14929428    -0.17200
C2225       C  0.73886125  0.75034128  0.16996668    -0.27700
C2226       C  0.74602979  0.77570605  0.14359791     0.18400
C2227       C  0.73594485  0.74416261  0.02836462     0.12300
C2228       C  0.71949814  0.69044716  0.08238428    -0.12000
H2229       H  0.72449426  0.70341695  0.16932806     0.12600
C2230       C  0.75389327  0.80567301  0.16247955    -0.22900
H2231       H  0.75049878  0.79232089  0.07710151     0.08300
C2232       C  0.71070090  0.73873299  0.00352728     0.04600
C2233       C  0.71218459  0.73893149  0.95723592    -0.20100
C2234       C  0.73843147  0.74466611  0.93541279    -0.12400
C2235       C  0.76331587  0.74889726  0.96054825     0.13300
C2236       C  0.76180614  0.74893124  0.00671828    -0.22800
C2237       C  0.68245404  0.73322938  0.02590824    -0.05900
H2238       H  0.69311131  0.73554530  0.93799824     0.14800
C2239       C  0.79147451  0.75254304  0.94012234    -0.16100
H2240       H  0.78095091  0.75258349  0.02608123     0.09200
H2241       H  0.73873592  0.81291358  0.14849014     0.07000
H2242       H  0.77718974  0.82236046  0.15344427     0.08200
H2243       H  0.75156023  0.80549663  0.19875520     0.07300
H2244       H  0.73787635  0.69235038  0.06130558     0.02100
H2245       H  0.69931837  0.68321470  0.06179338     0.02600
H2246       H  0.71434698  0.67291841  0.10759598     0.06100
H2247       H  0.66485452  0.72947117  0.00163107     0.05100
H2248       H  0.68703875  0.75281262  0.04639501    -0.00700
H2249       H  0.67377695  0.71319249  0.04736277     0.00800
H2250       H  0.81046062  0.77502251  0.94799032     0.04500
H2251       H  0.79004923  0.74958900  0.90387964     0.06400
H2252       H  0.79614679  0.73544422  0.95395644     0.07300
loop_ 
_geom_bond_atom_site_label_1 
_geom_bond_atom_site_label_2 
_geom_bond_distance 
_geom_bond_site_symmetry_2 
_ccdc_geom_bond_type 
C1            N2   1.361       .  A
C1            N6   1.356       .  A
C1          C504   1.489       .  S
N2            C3   1.359       .  A
C3            N4   1.359       .  A
C3          C481   1.474       .  S
N4            C5   1.360       .  A
C5            N6   1.357       .  A
C5          C536   1.480       .  S
C7            N8   1.358       .  A
C7           N12   1.361       .  A
C7          C440   1.486       .  S
N8            C9   1.357       .  A
C9           N10   1.357       .  A
C9          C408   1.480       .  S
N10          C11   1.359       .  A
C11          N12   1.361       .  A
C11         C545   1.477       .  S
C13          N14   1.359       .  A
C13          N18   1.362       .  A
C13         C321   1.484       .  S
N14          C15   1.360       .  A
C15          N16   1.360       .  A
C15         C385   1.481       .  S
N16          C17   1.358       .  A
C17          N18   1.361       .  A
C17         C344   1.481       .  S
C19          N20   1.358       .  A
C19          N24   1.359       .  A
C19         C248   1.485       .  S
N20          C21   1.359       .  A
C21          N22   1.360       .  A
C21         C376   1.487       .  S
N22          C23   1.358       .  A
C23          N24   1.358       .  A
C23         C289   1.479       .  S
C25          N26   1.357       .  A
C25          N30   1.360       .  A
C25         C193   1.483       .  S
N26          C27   1.358       .  A
C27          N28   1.362       .  A
C27         C216   1.494       .  S
N28          C29   1.360       .  A
C29          N30   1.360       .  A
C29         C152   1.488       .  S
C31          N32   1.359       .  A
C31          N36   1.359       .  A
C31         C129   1.484       .  S
N32          C33   1.360       .  A
C33          N34   1.360       .  A
C33         C225   1.478       .  S
N34          C35   1.358       .  A
C35          N36   1.358       .  A
C35          C97   1.478       .  S
O37         Mn63   2.106   1_565  S
O37         C627   1.274       .  A
C38         C449   1.488       .  S
C38          O71   1.271       .  A
C38          O68   1.274       .  A
O39         Mn46   2.167       .  S
O39         Mn57   2.130       .  S
O39         Mn61   2.173       .  S
O39        Mn626   2.128       .  S
O40         Mn74   2.101       .  S
O40          C50   1.275       .  A
O41         Mn57   2.095       .  S
O41          C64   1.271       .  A
O42         Mn61   2.110       .  S
O42          C69   1.256       .  A
O43         Mn63   1.970       .  S
O43       Mn1200   1.970       .  S
O43          C59   1.221       .  S
C44         C353   1.502       .  S
C44          O47   1.257       .  A
C44          O70   1.217       .  S
O45         Mn46   2.158       .  S
O45         Mn79   2.121       .  S
O45         Mn61   2.167       .  S
O45       Mn1191   2.126       .  S
Mn46         O51   2.095       .  S
Mn46       O1201   2.110       .  S
Mn46        O641   2.089       .  S
Mn46       O1741   2.159       .  S
O47       Mn1187   2.126   1_455  S
O48         Mn55   2.090       .  S
O48          C50   1.270       .  A
C49         C280   1.490       .  S
C49          O75   1.254       .  A
C49          O62   1.216       .  S
C50         C513   1.497       .  S
O51          C76   1.250       .  A
O52         Mn55   2.119       .  S
O52         Mn74   2.136       .  S
O52       Mn1735   2.159   1_445  S
O52       Mn1750   2.166   1_445  S
O53         Mn57   1.958       .  S
O53         Mn79   1.967       .  S
O53          C76   1.220       .  S
C54         C184   1.488       .  S
C54          O56   1.270       .  A
C54        O1206   1.273       .  A
Mn55         O68   2.110       .  S
Mn55        O633   1.969   1_545  S
Mn55        O625   1.969   1_545  S
O56         Mn79   2.088       .  S
Mn57         O73   2.087       .  S
Mn57         O67   1.956       .  S
O58         Mn63   2.103   1_565  S
O58         C623   1.273       .  A
C59         C161   1.486       .  S
C59          O77   1.255       .  A
C60         C257   1.483       .  S
C60          O73   1.271       .  A
C60         O621   1.273       .  A
Mn61       O1173   2.126       .  S
Mn61        O640   2.107       .  S
Mn61       O1741   2.166       .  S
O62         Mn65   1.955       .  S
O62        Mn618   1.969       .  S
Mn63        O602   2.128   1_545  S
Mn63         O81   1.974       .  S
C64         C312   1.482       .  S
C64         O600   1.274       .  A
Mn65         O72   2.084       .  S
Mn65         O80   2.097       .  S
Mn65       O1171   2.126   1_455  S
Mn65         O70   1.957       .  S
C66         C120   1.484       .  S
C66          O82   1.275       .  A
C66        O1198   1.270       .  A
O67         Mn79   1.965       .  S
O67          C69   1.218       .  S
C69         C472   1.496       .  S
O70        Mn618   1.969       .  S
O71         Mn74   2.091       .  S
O72        C1192   1.270   1_455  A
Mn74       O1169   1.970   1_455  S
Mn74       O1207   1.961   1_455  S
O75       Mn1172   2.110   1_455  S
C76         C417   1.490       .  S
O77        Mn624   2.107   1_545  S
O78        Mn609   2.089   1_545  S
O78          C83   1.251       .  A
Mn79         O82   2.106       .  S
O80        C1180   1.273   1_455  A
O81       Mn1200   1.961       .  S
O81          C83   1.223       .  S
C83          C88   1.491       .  S
C84          C85   1.401       .  A
C84          C89   1.407       .  A
C84        H1220   1.084       .  S
C85          C90   1.484       .  S
C85          C86   1.409       .  A
C86          C87   1.402       .  A
C86          C91   1.507       .  S
C87          C88   1.407       .  A
C87          H92   1.084       .  S
C88          C89   1.422       .  A
C89        C1219   1.506       .  S
C90          C95   1.411       .  A
C90          C99   1.402       .  A
C91         H107   1.110       .  S
C91         H108   1.110       .  S
C91         H109   1.111       .  S
C93        C1215   1.506       .  S
C93         H105   1.111       .  S
C93         H106   1.108       .  S
C93        H1230   1.110   1_455  S
H94        C1210   1.084       .  S
C95          C96   1.405       .  A
C95         C100   1.506       .  S
C96          C97   1.405       .  A
C96         H101   1.084       .  S
C97          C98   1.416       .  A
C98          C99   1.404       .  A
C98        C1228   1.508       .  S
C99        H1229   1.085       .  S
C100        H110   1.111       .  S
C100        H111   1.110       .  S
C100        H112   1.111       .  S
C102       C1224   1.508       .  S
C102        H113   1.111       .  S
C102        H114   1.107       .  S
C102        H115   1.110       .  S
H103       C1225   1.085       .  S
H104       C1219   1.110       .  S
C116        C117   1.401       .  A
C116        C121   1.405       .  A
C116        H126   1.084       .  S
C117        C122   1.480       .  S
C117        C118   1.408       .  A
C118       C1245   1.401       .  A
C118       C1249   1.507       .  S
C119       C1244   1.401       .  A
C119       C1246   1.407   1_455  A
C119        H124   1.084       .  S
C120        C121   1.418       .  A
C120       C1245   1.407       .  A
C121        C125   1.505       .  S
C122        C127   1.409       .  A
C122        C131   1.399       .  A
C123       C1244   1.507       .  S
C123        H139   1.110       .  S
C123        H140   1.110       .  S
C123        H141   1.111       .  S
C125        H136   1.111       .  S
C125        H137   1.110       .  S
C125        H138   1.105       .  S
C127        C128   1.406       .  A
C127       C1258   1.506       .  S
C128        C129   1.408       .  A
C128       H1259   1.084       .  S
C129        C130   1.419       .  A
C130        C131   1.402       .  A
C130        C134   1.509       .  S
C131        H135   1.085       .  S
C132       C1253   1.506       .  S
C132        H142   1.111       .  S
C132        H143   1.110       .  S
C132        H144   1.110       .  S
H133       C1254   1.084       .  S
C134        H145   1.111       .  S
C134        H146   1.106       .  S
C134        H147   1.110       .  S
C148        C149   1.400       .  A
C148        C153   1.406       .  A
C148        H158   1.085       .  S
C149        C154   1.486       .  S
C149       C1276   1.412       .  A
C150        C151   1.405       .  A
C150       C1275   1.412   1_455  A
C150        C155   1.509       .  S
C151       C1278   1.406   1_455  A
C151        H156   1.084       .  S
C152        C153   1.421       .  A
C152       C1277   1.406       .  A
C153        C157   1.508       .  S
C154        C159   1.410       .  A
C154        C163   1.404       .  A
C155        H171   1.108       .  S
C155        H172   1.108       .  S
C155        H173   1.111       .  S
C157        H168   1.111       .  S
C157        H169   1.110       .  S
C157        H170   1.105       .  S
C159        C160   1.403       .  A
C159        C164   1.508       .  S
C160        C161   1.406       .  A
C160        H165   1.084       .  S
C161        C162   1.417       .  A
C162        C163   1.409       .  A
C162        C166   1.507       .  S
C163        H167   1.084       .  S
C164        H174   1.111       .  S
C164        H175   1.110       .  S
C164       H1302   1.108       .  S
C166        H177   1.110       .  S
C166        H178   1.109       .  S
C166       H1305   1.111       .  S
H176       C1290   1.108       .  S
H179       C1292   1.111       .  S
C180        C181   1.398       .  A
C180        C185   1.403       .  A
C180        H190   1.085       .  S
C181        C186   1.481       .  S
C181       C1308   1.408       .  A
C182        C183   1.405       .  A
C182       C1307   1.408   1_455  A
C182        C187   1.504       .  S
C183       C1310   1.408   1_455  A
C183        H188   1.084       .  S
C184        C185   1.422       .  A
C184       C1309   1.408       .  A
C185        C189   1.509       .  S
C186        C195   1.400       .  A
C186       C1317   1.410       .  A
C187        H204   1.109       .  S
C187        H205   1.108       .  S
C187       H1329   1.110       .  S
C189        H200   1.111       .  S
C189        H201   1.109       .  S
C189        H202   1.111       .  S
C191        C192   1.402       .  A
C191       C1312   1.410   1_455  A
C191        C196   1.507       .  S
C192       C1319   1.405   1_455  A
C192        H197   1.084       .  S
C193        C194   1.421       .  A
C193       C1318   1.405       .  A
C194        C195   1.406       .  A
C194        C198   1.509       .  S
C195        H199   1.085       .  S
C196        H206   1.111       .  S
C196        H207   1.110       .  S
C196        H208   1.110       .  S
C198        H209   1.111       .  S
C198        H210   1.105       .  S
C198        H211   1.110       .  S
H203       C1313   1.110       .  S
C212        C213   1.399       .  A
C212        C217   1.405       .  A
C212       H1348   1.085       .  S
C213        C218   1.482       .  S
C213        C214   1.408       .  A
C214        C215   1.403       .  A
C214        C219   1.506       .  S
C215        C216   1.409       .  A
C215        H220   1.084       .  S
C216        C217   1.424       .  A
C217       C1347   1.508       .  S
C218        C223   1.410       .  A
C218       C1353   1.400       .  A
C219        H235   1.110       .  S
C219        H236   1.110       .  S
C219        H237   1.111       .  S
C221       C1343   1.508       .  S
C221        H233   1.111       .  S
C221        H234   1.110       .  S
C221       H1358   1.110       .  S
H222       C1338   1.085       .  S
C223        C224   1.404   1_554  A
C223        C228   1.506       .  S
C224        C225   1.404       .  A
C224        H229   1.084       .  S
C225       C1352   1.418       .  A
C226        C227   1.404   1_556  A
C226       C1351   1.418       .  A
C226        C230   1.508       .  S
C227       C1344   1.400       .  A
C227        H231   1.085       .  S
C228        H238   1.111       .  S
C228        H239   1.110       .  S
C228        H240   1.110       .  S
C230        H241   1.111       .  S
C230        H242   1.106       .  S
C230        H243   1.110       .  S
H232       C1347   1.110       .  S
C244        C249   1.404       .  A
C244        C808   1.399       .  A
C244        H254   1.085       .  S
C245        C250   1.481       .  S
C245        C246   1.409       .  A
C245        C807   1.399       .  A
C246        C247   1.405       .  A
C246        C251   1.507       .  S
C247        C248   1.407       .  A
C247        H252   1.084       .  S
C248        C812   1.421       .  A
C249        C811   1.421       .  A
C249        C253   1.509   1_565  S
C250        C255   1.408       .  A
C250        C259   1.402       .  A
C251        H267   1.110       .  S
C251        H268   1.110       .  S
C251        H269   1.111       .  S
C253        H264   1.110   1_545  S
C253        H265   1.111       .  S
C253        H266   1.105       .  S
C255        C256   1.401       .  A
C255        C260   1.507       .  S
C256        C257   1.407       .  A
C256        H261   1.084       .  S
C257        C258   1.419       .  A
C258        C259   1.406       .  A
C258        C825   1.506       .  S
C259        H826   1.085       .  S
C260        H270   1.111       .  S
C260        H271   1.110       .  S
C260        H272   1.110       .  S
C262        C821   1.506   1_545  S
C262        H273   1.110       .  S
C262        H274   1.104       .  S
C262        H275   1.111       .  S
H263        C822   1.085       .  S
C276        C277   1.396       .  A
C276        C281   1.400       .  A
C276        H849   1.085       .  S
C277        C282   1.482       .  S
C277        C278   1.409       .  A
C278        C279   1.408       .  A
C278        C283   1.504       .  S
C279        C280   1.410       .  A
C279        H284   1.084       .  S
C280        C281   1.426       .  A
C281        C848   1.509       .  S
C282        C287   1.411       .  A
C282        C854   1.401       .  A
C283        H299   1.110       .  S
C283        H300   1.110       .  S
C283        H301   1.111       .  S
C285        C844   1.509   1_545  S
C285        H296   1.110   1_545  S
C285        H297   1.111       .  S
C285        H298   1.098       .  S
H286        C839   1.085       .  S
C287        C288   1.404       .  A
C287        C292   1.507       .  S
C288        C289   1.404       .  A
C288        H293   1.084       .  S
C289        C853   1.419       .  A
C290        C291   1.405       .  A
C290        C852   1.419       .  A
C290        C294   1.509   1_565  S
C291        C845   1.401       .  A
C291        H295   1.085       .  S
C292        H302   1.111       .  S
C292        H303   1.110       .  S
C292        H304   1.110       .  S
C294        H305   1.111       .  S
C294        H306   1.105       .  S
C294        H307   1.110   1_545  S
C308        C309   1.400       .  A
C308        C313   1.403       .  A
C308        H881   1.085       .  S
C309        C314   1.488       .  S
C309        C310   1.412       .  A
C310        C311   1.410       .  A
C310        C315   1.505       .  S
C311        C312   1.406       .  A
C311        H316   1.085       .  S
C312        C313   1.419       .  A
C313        C880   1.510       .  S
C314        C319   1.412       .  A
C314        C323   1.401       .  A
C315        H331   1.110       .  S
C315        H332   1.110       .  S
C315        H333   1.110       .  S
C317        C876   1.510       .  S
C317        H328   1.111       .  S
C317        H329   1.110   1_565  S
C317        H330   1.106       .  S
H318        C871   1.085       .  S
C319        C320   1.407       .  A
C319        C324   1.506       .  S
C320        C321   1.405       .  A
C320        H325   1.084       .  S
C321        C322   1.420       .  A
C322        C323   1.406       .  A
C322        C889   1.508       .  S
C323        H327   1.084       .  S
C324        H334   1.111       .  S
C324        H335   1.110       .  S
C324        H336   1.111       .  S
C326        C885   1.508   1_545  S
C326        H337   1.111       .  S
C326        H901   1.106       .  S
C326        H902   1.110       .  S
H338        C889   1.106       .  S
H339        C889   1.110       .  S
C340        C341   1.404       .  A
C340        C345   1.405       .  A
C340        H350   1.084       .  S
C341        C346   1.489       .  S
C341        C342   1.413       .  A
C342        C343   1.409       .  A
C342        C910   1.507       .  S
C343        C344   1.405       .  A
C343        H348   1.084       .  S
C344        C345   1.415       .  A
C345        C349   1.507       .  S
C346        C351   1.412       .  A
C346        C355   1.397       .  A
C347        C905   1.507   1_545  S
C347        H364   1.108       .  S
C347        H365   1.111       .  S
C347        H926   1.110       .  S
C349        H360   1.111       .  S
C349        H361   1.110       .  S
C349        H362   1.108       .  S
C351        C352   1.412       .  A
C351        C919   1.507       .  S
C352        C353   1.410       .  A
C352        H920   1.083       .  S
C353        C354   1.427       .  A
C354        C355   1.404       .  A
C354        C358   1.510       .  S
C355        H359   1.085       .  S
C356        C914   1.507       .  S
C356        H366   1.111       .  S
C356        H368   1.108       .  S
C356        H930   1.109       .  S
H357        C915   1.083       .  S
C358        H369   1.111       .  S
C358        H370   1.110       .  S
C358        H371   1.108       .  S
H363        C910   1.110       .  S
H367        C919   1.109       .  S
C372        C373   1.399       .  A
C372        C377   1.404   1_554  A
C372        H945   1.084       .  S
C373        C378   1.481       .  S
C373        C374   1.409       .  A
C374        C375   1.404   1_554  A
C374        C379   1.506       .  S
C375        C376   1.407       .  A
C375        H380   1.084       .  S
C376        C377   1.421       .  A
C377        C944   1.508       .  S
C378        C383   1.410       .  A
C378        C387   1.400       .  A
C379        H395   1.110       .  S
C379        H396   1.110       .  S
C379        H397   1.111       .  S
C381        C940   1.508       .  S
C381        H392   1.109       .  S
C381        H393   1.111       .  S
C381        H394   1.110   1_565  S
H382        C935   1.084       .  S
C383        C384   1.405       .  A
C383        C388   1.506       .  S
C384        C385   1.406       .  A
C384        H389   1.084       .  S
C385        C386   1.418       .  A
C386        C387   1.403       .  A
C386        C953   1.508       .  S
C387        H954   1.085       .  S
C388        H398   1.111       .  S
C388        H399   1.110       .  S
C388        H400   1.110       .  S
C390        C949   1.508   1_545  S
C390        H401   1.111       .  S
C390        H402   1.106       .  S
C390        H403   1.110       .  S
H391        C950   1.085       .  S
C404        C405   1.402       .  A
C404        C409   1.403       .  A
C404        H414   1.084       .  S
C405        C410   1.483       .  S
C405        C406   1.411       .  A
C406        C407   1.405       .  A
C406        C411   1.506       .  S
C407        C408   1.405       .  A
C407        H412   1.084       .  S
C408        C409   1.415       .  A
C409        C413   1.507       .  S
C410        C415   1.410       .  A
C410        C419   1.401       .  A
C411        H427   1.110       .  S
C411        H428   1.111       .  S
C411        H429   1.111       .  S
C413        H424   1.111       .  S
C413        H425   1.110       .  S
C413        H426   1.109       .  S
C415        C416   1.399       .  A
C415        C420   1.508       .  S
C416        C417   1.406       .  A
C416        H421   1.084       .  S
C417        C418   1.421       .  A
C418        C419   1.408       .  A
C418        C422   1.507       .  S
C419        H423   1.084       .  S
C420        H430   1.111       .  S
C420        H431   1.109       .  S
C420        H432   1.111       .  S
C422        H433   1.111       .  S
C422        H434   1.109       .  S
C422        H435   1.110       .  S
C436        C437   1.399       .  A
C436        C441   1.404       .  A
C436        H446   1.084       .  S
C437        C442   1.482       .  S
C437        C438   1.410       .  A
C438        C439   1.407       .  A
C438        C443   1.506       .  S
C439        C440   1.407       .  A
C439        H444   1.084       .  S
C440        C441   1.420       .  A
C441        C445   1.509       .  S
C442        C447   1.409       .  A
C442        C451   1.400       .  A
C443        H459   1.110       .  S
C443        H460   1.110       .  S
C443        H461   1.111       .  S
C445        H456   1.109       .  S
C445        H457   1.111       .  S
C445        H458   1.111       .  S
C447        C448   1.403       .  A
C447        C452   1.506       .  S
C448        C449   1.408       .  A
C448        H453   1.084       .  S
C449        C450   1.420       .  A
C450        C451   1.405       .  A
C450        C454   1.504       .  S
C451        H455   1.085       .  S
C452        H462   1.111       .  S
C452        H463   1.110       .  S
C452        H464   1.110       .  S
C454        H465   1.110       .  S
C454        H466   1.101       .  S
C454        H467   1.111       .  S
C468        C469   1.398       .  A
C468        C473   1.403       .  A
C468        H478   1.084       .  S
C469        C474   1.485       .  S
C469        C470   1.410       .  A
C470        C471   1.407       .  A
C470        C475   1.506       .  S
C471        C472   1.409       .  A
C471        H476   1.084       .  S
C472        C473   1.426       .  A
C473        C477   1.510       .  S
C474        C479   1.412       .  A
C474        C483   1.403       .  A
C475        H491   1.109       .  S
C475        H492   1.110       .  S
C475        H493   1.111       .  S
C477        H488   1.111       .  S
C477        H489   1.110       .  S
C477        H490   1.110       .  S
C479        C480   1.405       .  A
C479        C484   1.507       .  S
C480        C481   1.402       .  A
C480        H485   1.085       .  S
C481        C482   1.414       .  A
C482        C483   1.404       .  A
C482        C486   1.507       .  S
C483        H487   1.084       .  S
C484        H494   1.111       .  S
C484        H495   1.110       .  S
C484        H496   1.110       .  S
C486        H497   1.111       .  S
C486        H498   1.108       .  S
C486        H499   1.110       .  S
C500        C501   1.398       .  A
C500        C505   1.405       .  A
C500        H510   1.085       .  S
C501        C506   1.481       .  S
C501        C502   1.410       .  A
C502        C503   1.403       .  A
C502        C507   1.507       .  S
C503        C504   1.407       .  A
C503        H508   1.084       .  S
C504        C505   1.423       .  A
C505        C509   1.508       .  S
C506        C511   1.408       .  A
C506        C515   1.396       .  A
C507        H523   1.110       .  S
C507        H524   1.110       .  S
C507        H525   1.111       .  S
C509        H520   1.109       .  S
C509        H521   1.111       .  S
C509        H522   1.110       .  S
C511        C512   1.405       .  A
C511        C516   1.505       .  S
C512        C513   1.410       .  A
C512        H517   1.083       .  S
C513        C514   1.426       .  A
C514        C515   1.403       .  A
C514        C518   1.508       .  S
C515        H519   1.085       .  S
C516        H526   1.109       .  S
C516        H527   1.110       .  S
C516        H528   1.110       .  S
C518        H529   1.109       .  S
C518        H530   1.110       .  S
C518        H531   1.111       .  S
C532        C533   1.401       .  A
C532        C537   1.404       .  A
C532        H542   1.085       .  S
C533        C538   1.479       .  S
C533        C534   1.408       .  A
C534        C535   1.402       .  A
C534        C539   1.507       .  S
C535        C536   1.406       .  A
C535        H540   1.084       .  S
C536        C537   1.418       .  A
C537        C541   1.508       .  S
C538        C543   1.411       .  A
C538        C547   1.399       .  A
C539        H555   1.110       .  S
C539        H556   1.110       .  S
C539        H557   1.111       .  S
C541        H552   1.111       .  S
C541        H553   1.110       .  S
C541        H554   1.106       .  S
C543        C544   1.405   1_554  A
C543        C548   1.506       .  S
C544        C545   1.405       .  A
C544        H549   1.084       .  S
C545        C546   1.417       .  A
C546        C547   1.402   1_556  A
C546        C550   1.508       .  S
C547        H551   1.085       .  S
C548        H558   1.111       .  S
C548        H559   1.110       .  S
C548        H560   1.110       .  S
C550        H561   1.110       .  S
C550        H562   1.107       .  S
C550        H563   1.111       .  S
C564        N565   1.361       .  A
C564        N569   1.356       .  A
C564       C1067   1.489       .  S
N565        C566   1.359       .  A
C566        N567   1.359       .  A
C566       C1044   1.474       .  S
N567        C568   1.360       .  A
C568        N569   1.357       .  A
C568       C1099   1.480       .  S
C570        N571   1.358       .  A
C570        N575   1.361       .  A
C570       C1003   1.486       .  S
N571        C572   1.357       .  A
C572        N573   1.357       .  A
C572        C971   1.480       .  S
N573        C574   1.359       .  A
C574        N575   1.361       .  A
C574       C1108   1.477       .  S
C576        N577   1.359       .  A
C576        N581   1.362       .  A
C576        C884   1.484       .  S
N577        C578   1.360       .  A
C578        N579   1.360       .  A
C578        C948   1.481       .  S
N579        C580   1.358       .  A
C580        N581   1.361       .  A
C580        C907   1.481       .  S
C582        N583   1.358       .  A
C582        N587   1.359       .  A
C582        C811   1.485       .  S
N583        C584   1.359       .  A
C584        N585   1.360       .  A
C584        C939   1.487       .  S
N585        C586   1.358       .  A
C586        N587   1.358       .  A
C586        C852   1.478       .  S
C588        N589   1.357       .  A
C588        N593   1.360       .  A
C588        C756   1.482       .  S
N589        C590   1.358       .  A
C590        N591   1.362       .  A
C590        C779   1.494       .  S
N591        C592   1.360       .  A
C592        N593   1.360       .  A
C592        C715   1.488       .  S
C594        N595   1.359       .  A
C594        N599   1.359       .  A
C594        C692   1.484       .  S
N595        C596   1.360       .  A
C596        N597   1.360       .  A
C596        C788   1.478       .  S
N597        C598   1.358       .  A
C598        N599   1.358       .  A
C598        C660   1.479       .  S
O600       Mn626   2.106       .  S
C601       C1012   1.488       .  S
C601        O634   1.271       .  A
C601        O631   1.274       .  A
O602       Mn609   2.167       .  S
O602       Mn620   2.130       .  S
O602       Mn624   2.173       .  S
O603       Mn637   2.101       .  S
O603        C613   1.275       .  A
O604       Mn620   2.095       .  S
O604        C627   1.271       .  A
O605       Mn624   2.110       .  S
O605        C632   1.256       .  A
O606      Mn1763   1.970       .  S
O606       Mn626   1.970       .  S
O606        C622   1.221       .  S
C607        C916   1.502       .  S
C607        O610   1.257       .  A
C607        O633   1.217       .  S
O608      Mn1754   2.126       .  S
O608       Mn609   2.158       .  S
O608       Mn642   2.121       .  S
O608       Mn624   2.167       .  S
Mn609      O1764   2.110       .  S
Mn609       O614   2.095       .  S
Mn609      O1178   2.159   1_565  S
O610      Mn1750   2.126   1_455  S
O611       Mn618   2.090       .  S
O611        C613   1.270       .  A
C612        C843   1.490       .  S
C612        O638   1.254       .  A
C612        O625   1.216       .  S
C613       C1076   1.497       .  S
O614        C639   1.250       .  A
O615      Mn1172   2.159   1_455  S
O615       Mn618   2.119       .  S
O615       Mn637   2.136       .  S
O615      Mn1187   2.166   1_455  S
O616       Mn620   1.958       .  S
O616       Mn642   1.967       .  S
O616        C639   1.220       .  S
C617        C747   1.488       .  S
C617       O1769   1.273       .  A
C617        O619   1.270       .  A
Mn618       O631   2.110       .  S
O619       Mn642   2.088       .  S
Mn620       O636   2.087       .  S
Mn620       O630   1.956       .  S
O621       Mn626   2.103       .  S
C622        C724   1.486       .  S
C622        O640   1.255       .  A
C623        C820   1.483       .  S
C623        O636   1.271       .  A
Mn624      O1736   2.126       .  S
Mn624      O1178   2.166   1_565  S
O625       Mn628   1.955       .  S
Mn626       O644   1.974       .  S
C627        C875   1.482       .  S
Mn628       O635   2.084       .  S
Mn628       O643   2.097       .  S
Mn628      O1734   2.126   1_455  S
Mn628       O633   1.957       .  S
C629        C683   1.484       .  S
C629       O1761   1.270       .  A
C629        O645   1.275       .  A
O630       Mn642   1.965       .  S
O630        C632   1.218       .  S
C632       C1035   1.496       .  S
O634       Mn637   2.091       .  S
O635       C1755   1.270   1_455  A
Mn637      O1732   1.970   1_455  S
Mn637      O1770   1.961   1_455  S
O638      Mn1735   2.110   1_455  S
C639        C980   1.490       .  S
O641        C646   1.251       .  A
Mn642       O645   2.106       .  S
O643       C1743   1.273   1_455  A
O644      Mn1763   1.962       .  S
O644        C646   1.223       .  S
C646        C651   1.491       .  S
C647        C648   1.401       .  A
C647        C652   1.407       .  A
C647       H1783   1.084       .  S
C648        C653   1.484       .  S
C648        C649   1.409       .  A
C649        C650   1.402       .  A
C649        C654   1.507       .  S
C650        C651   1.407       .  A
C650        H655   1.084       .  S
C651        C652   1.422       .  A
C652       C1782   1.506       .  S
C653        C658   1.411       .  A
C653        C662   1.402       .  A
C654        H670   1.110       .  S
C654        H671   1.110       .  S
C654        H672   1.111       .  S
C656       C1778   1.506       .  S
C656       H1793   1.110   1_455  S
C656        H668   1.111       .  S
C656        H669   1.108       .  S
H657       C1773   1.084       .  S
C658        C659   1.405       .  A
C658        C663   1.506       .  S
C659        C660   1.405       .  A
C659        H664   1.084       .  S
C660        C661   1.416       .  A
C661        C662   1.404       .  A
C661       C1791   1.508       .  S
C662       H1792   1.085       .  S
C663        H673   1.111       .  S
C663        H674   1.110       .  S
C663        H675   1.111       .  S
C665       C1787   1.508       .  S
C665        H676   1.111       .  S
C665        H677   1.107       .  S
C665        H678   1.110       .  S
H666       C1788   1.085       .  S
H667       C1782   1.110       .  S
C679        C680   1.401       .  A
C679        C684   1.405       .  A
C679        H689   1.084       .  S
C680        C685   1.480       .  S
C680        C681   1.408       .  A
C681       C1808   1.401       .  A
C681       C1812   1.507       .  S
C682       C1807   1.401       .  A
C682       C1809   1.407   1_455  A
C682        H687   1.084       .  S
C683       C1808   1.407       .  A
C683        C684   1.418       .  A
C684        C688   1.505       .  S
C685        C690   1.409       .  A
C685        C694   1.399       .  A
C686       C1807   1.507       .  S
C686        H702   1.110       .  S
C686        H703   1.110       .  S
C686        H704   1.111       .  S
C688        H699   1.111       .  S
C688        H700   1.110       .  S
C688        H701   1.105       .  S
C690        C691   1.406       .  A
C690       C1821   1.506       .  S
C691        C692   1.408       .  A
C691       H1822   1.084       .  S
C692        C693   1.419       .  A
C693        C694   1.402       .  A
C693        C697   1.509       .  S
C694        H698   1.085       .  S
C695       C1816   1.506       .  S
C695        H705   1.111       .  S
C695        H706   1.110       .  S
C695        H707   1.110       .  S
H696       C1817   1.084       .  S
C697        H708   1.111       .  S
C697        H709   1.106       .  S
C697        H710   1.110       .  S
C711        C712   1.400       .  A
C711        C716   1.406       .  A
C711        H721   1.085       .  S
C712        C717   1.486       .  S
C712       C1839   1.412       .  A
C713       C1838   1.412   1_455  A
C713        C714   1.405       .  A
C713        C718   1.509       .  S
C714       C1841   1.406   1_455  A
C714        H719   1.084       .  S
C715       C1840   1.406       .  A
C715        C716   1.421       .  A
C716        C720   1.508       .  S
C717        C722   1.410       .  A
C717        C726   1.404       .  A
C718        H734   1.108       .  S
C718        H735   1.108       .  S
C718        H736   1.111       .  S
C720        H731   1.111       .  S
C720        H732   1.110       .  S
C720        H733   1.105       .  S
C722        C723   1.403       .  A
C722        C727   1.508       .  S
C723        C724   1.406       .  A
C723        H728   1.084       .  S
C724        C725   1.417       .  A
C725        C726   1.409       .  A
C725        C729   1.507       .  S
C726        H730   1.084       .  S
C727        H737   1.111       .  S
C727        H738   1.110       .  S
C727       H1865   1.108       .  S
C729        H740   1.110       .  S
C729        H741   1.108       .  S
C729       H1868   1.111       .  S
H739       C1853   1.108       .  S
H742       C1855   1.111       .  S
C743        C744   1.398       .  A
C743        C748   1.403       .  A
C743        H753   1.085       .  S
C744        C749   1.481       .  S
C744       C1871   1.408       .  A
C745       C1870   1.408   1_455  A
C745        C746   1.405       .  A
C745        C750   1.504       .  S
C746       C1873   1.408   1_455  A
C746        H751   1.084       .  S
C747       C1872   1.408       .  A
C747        C748   1.422       .  A
C748        C752   1.509       .  S
C749       C1880   1.410       .  A
C749        C758   1.400       .  A
C750       H1892   1.110       .  S
C750        H767   1.109       .  S
C750        H768   1.108       .  S
C752        H763   1.111       .  S
C752        H764   1.109       .  S
C752        H765   1.111       .  S
C754       C1875   1.410   1_455  A
C754        C755   1.402       .  A
C754        C759   1.507       .  S
C755       C1882   1.405   1_455  A
C755        H760   1.084       .  S
C756       C1881   1.405       .  A
C756        C757   1.421       .  A
C757        C758   1.405       .  A
C757        C761   1.509       .  S
C758        H762   1.085       .  S
C759        H769   1.111       .  S
C759        H770   1.110       .  S
C759        H771   1.110       .  S
C761        H772   1.111       .  S
C761        H773   1.105       .  S
C761        H774   1.110       .  S
H766       C1876   1.110       .  S
C775        C776   1.399       .  A
C775        C780   1.405       .  A
C775       H1911   1.085       .  S
C776        C781   1.482       .  S
C776        C777   1.408       .  A
C777        C778   1.403       .  A
C777        C782   1.506       .  S
C778        C779   1.409       .  A
C778        H783   1.084       .  S
C779        C780   1.424       .  A
C780       C1910   1.508       .  S
C781        C786   1.410       .  A
C781       C1916   1.400       .  A
C782        H798   1.110       .  S
C782        H799   1.110       .  S
C782        H800   1.111       .  S
C784       C1906   1.508       .  S
C784       H1921   1.110       .  S
C784        H796   1.111       .  S
C784        H797   1.110       .  S
H785       C1901   1.085       .  S
C786        C787   1.404   1_554  A
C786        C791   1.506       .  S
C787        C788   1.404       .  A
C787        H792   1.084       .  S
C788       C1915   1.418       .  A
C789       C1914   1.418       .  A
C789        C790   1.403   1_556  A
C789        C793   1.508       .  S
C790       C1907   1.400       .  A
C790        H794   1.085       .  S
C791        H801   1.111       .  S
C791        H802   1.110       .  S
C791        H803   1.110       .  S
C793        H804   1.111       .  S
C793        H805   1.106       .  S
C793        H806   1.110       .  S
H795       C1910   1.110       .  S
C807        C812   1.404       .  A
C807        H817   1.085       .  S
C808        C813   1.481       .  S
C808        C809   1.409       .  A
C809        C810   1.405       .  A
C809        C814   1.507       .  S
C810        C811   1.407       .  A
C810        H815   1.084       .  S
C812        C816   1.509       .  S
C813        C818   1.408       .  A
C813        C822   1.402       .  A
C814        H830   1.110       .  S
C814        H831   1.110       .  S
C814        H832   1.111       .  S
C816        H827   1.110       .  S
C816        H828   1.111       .  S
C816        H829   1.105       .  S
C818        C819   1.401       .  A
C818        C823   1.507       .  S
C819        C820   1.407       .  A
C819        H824   1.084       .  S
C820        C821   1.419       .  A
C821        C822   1.406       .  A
C823        H833   1.111       .  S
C823        H834   1.110       .  S
C823        H835   1.110       .  S
C825        H836   1.110       .  S
C825        H837   1.104       .  S
C825        H838   1.111       .  S
C839        C840   1.396       .  A
C839        C844   1.400       .  A
C840        C845   1.482       .  S
C840        C841   1.409       .  A
C841        C842   1.408       .  A
C841        C846   1.504       .  S
C842        C843   1.410       .  A
C842        H847   1.084       .  S
C843        C844   1.426       .  A
C845        C850   1.411       .  A
C846        H862   1.110       .  S
C846        H863   1.110       .  S
C846        H864   1.111       .  S
C848        H859   1.110       .  S
C848        H860   1.111       .  S
C848        H861   1.098       .  S
C850        C851   1.404       .  A
C850        C855   1.507       .  S
C851        C852   1.404       .  A
C851        H856   1.084       .  S
C853        C854   1.405       .  A
C853        C857   1.509       .  S
C854        H858   1.085       .  S
C855        H865   1.111       .  S
C855        H866   1.110       .  S
C855        H867   1.110       .  S
C857        H868   1.111       .  S
C857        H869   1.105       .  S
C857        H870   1.110       .  S
C871        C872   1.400       .  A
C871        C876   1.403       .  A
C872        C877   1.488       .  S
C872        C873   1.412       .  A
C873        C874   1.410       .  A
C873        C878   1.505       .  S
C874        C875   1.406       .  A
C874        H879   1.085       .  S
C875        C876   1.419       .  A
C877        C882   1.412       .  A
C877        C886   1.401       .  A
C878        H894   1.110       .  S
C878        H895   1.110       .  S
C878        H896   1.110       .  S
C880        H891   1.111       .  S
C880        H892   1.110       .  S
C880        H893   1.106       .  S
C882        C883   1.407       .  A
C882        C887   1.506       .  S
C883        C884   1.405       .  A
C883        H888   1.084       .  S
C884        C885   1.420       .  A
C885        C886   1.406       .  A
C886        H890   1.084       .  S
C887        H897   1.111       .  S
C887        H898   1.110       .  S
C887        H899   1.111       .  S
C889        H900   1.111       .  S
C903        C904   1.404       .  A
C903        C908   1.405       .  A
C903        H913   1.084       .  S
C904        C909   1.489       .  S
C904        C905   1.413       .  A
C905        C906   1.409       .  A
C906        C907   1.405       .  A
C906        H911   1.084   1_565  S
C907        C908   1.415       .  A
C908        C912   1.507       .  S
C909        C914   1.412       .  A
C909        C918   1.397       .  A
C910        H927   1.108       .  S
C910        H928   1.111       .  S
C912        H923   1.111       .  S
C912        H924   1.110       .  S
C912        H925   1.108       .  S
C914        C915   1.412       .  A
C915        C916   1.410       .  A
C916        C917   1.427       .  A
C917        C918   1.404       .  A
C917        C921   1.510       .  S
C918        H922   1.085       .  S
C919        H929   1.111       .  S
C919        H931   1.108       .  S
C921        H932   1.111       .  S
C921        H933   1.110       .  S
C921        H934   1.108   1_565  S
C935        C936   1.399       .  A
C935        C940   1.404   1_554  A
C936        C941   1.481       .  S
C936        C937   1.409       .  A
C937        C938   1.404   1_554  A
C937        C942   1.506       .  S
C938        C939   1.407       .  A
C938        H943   1.084       .  S
C939        C940   1.421       .  A
C941        C946   1.410       .  A
C941        C950   1.400       .  A
C942        H958   1.110       .  S
C942        H959   1.110       .  S
C942        H960   1.111       .  S
C944        H955   1.109       .  S
C944        H956   1.111       .  S
C944        H957   1.110       .  S
C946        C947   1.405       .  A
C946        C951   1.506       .  S
C947        C948   1.406       .  A
C947        H952   1.084       .  S
C948        C949   1.418       .  A
C949        C950   1.403       .  A
C951        H961   1.111       .  S
C951        H962   1.110       .  S
C951        H963   1.110       .  S
C953        H964   1.111       .  S
C953        H965   1.106       .  S
C953        H966   1.110       .  S
C967        C968   1.402       .  A
C967        C972   1.403       .  A
C967        H977   1.084       .  S
C968        C973   1.483       .  S
C968        C969   1.411       .  A
C969        C970   1.405       .  A
C969        C974   1.506       .  S
C970        C971   1.405       .  A
C970        H975   1.084       .  S
C971        C972   1.415       .  A
C972        C976   1.507       .  S
C973        C978   1.410       .  A
C973        C982   1.401       .  A
C974        H990   1.110       .  S
C974        H991   1.111       .  S
C974        H992   1.111       .  S
C976        H987   1.111       .  S
C976        H988   1.110       .  S
C976        H989   1.109       .  S
C978        C979   1.399       .  A
C978        C983   1.508       .  S
C979        C980   1.406       .  A
C979        H984   1.084       .  S
C980        C981   1.421       .  A
C981        C982   1.408       .  A
C981        C985   1.507       .  S
C982        H986   1.084       .  S
C983        H993   1.111       .  S
C983        H994   1.109       .  S
C983        H995   1.111       .  S
C985        H996   1.111       .  S
C985        H997   1.109       .  S
C985        H998   1.110       .  S
C999       C1000   1.399       .  A
C999       C1004   1.404       .  A
C999       H1009   1.084       .  S
C1000      C1005   1.482       .  S
C1000      C1001   1.410       .  A
C1001      C1002   1.407       .  A
C1001      C1006   1.506       .  S
C1002      C1003   1.407       .  A
C1002      H1007   1.084       .  S
C1003      C1004   1.420       .  A
C1004      C1008   1.509       .  S
C1005      C1010   1.409       .  A
C1005      C1014   1.400       .  A
C1006      H1022   1.110       .  S
C1006      H1023   1.110       .  S
C1006      H1024   1.111       .  S
C1008      H1019   1.109       .  S
C1008      H1020   1.111       .  S
C1008      H1021   1.111       .  S
C1010      C1011   1.403       .  A
C1010      C1015   1.506       .  S
C1011      C1012   1.408       .  A
C1011      H1016   1.084       .  S
C1012      C1013   1.420       .  A
C1013      C1014   1.405       .  A
C1013      C1017   1.504       .  S
C1014      H1018   1.085       .  S
C1015      H1025   1.111       .  S
C1015      H1026   1.110       .  S
C1015      H1027   1.110       .  S
C1017      H1028   1.110       .  S
C1017      H1029   1.101       .  S
C1017      H1030   1.111       .  S
C1031      C1032   1.398       .  A
C1031      C1036   1.403       .  A
C1031      H1041   1.084       .  S
C1032      C1037   1.485       .  S
C1032      C1033   1.410       .  A
C1033      C1034   1.407       .  A
C1033      C1038   1.506       .  S
C1034      C1035   1.409       .  A
C1034      H1039   1.084       .  S
C1035      C1036   1.426       .  A
C1036      C1040   1.510       .  S
C1037      C1042   1.412       .  A
C1037      C1046   1.403       .  A
C1038      H1054   1.109       .  S
C1038      H1055   1.110       .  S
C1038      H1056   1.111       .  S
C1040      H1051   1.111       .  S
C1040      H1052   1.110       .  S
C1040      H1053   1.110       .  S
C1042      C1043   1.405       .  A
C1042      C1047   1.507       .  S
C1043      C1044   1.402       .  A
C1043      H1048   1.085       .  S
C1044      C1045   1.414       .  A
C1045      C1046   1.404       .  A
C1045      C1049   1.507       .  S
C1046      H1050   1.084       .  S
C1047      H1057   1.111       .  S
C1047      H1058   1.110       .  S
C1047      H1059   1.110       .  S
C1049      H1060   1.111       .  S
C1049      H1061   1.108       .  S
C1049      H1062   1.110       .  S
C1063      C1064   1.398       .  A
C1063      C1068   1.405       .  A
C1063      H1073   1.085       .  S
C1064      C1069   1.481       .  S
C1064      C1065   1.410       .  A
C1065      C1066   1.403       .  A
C1065      C1070   1.507       .  S
C1066      C1067   1.406       .  A
C1066      H1071   1.084       .  S
C1067      C1068   1.422       .  A
C1068      C1072   1.508       .  S
C1069      C1074   1.408       .  A
C1069      C1078   1.396       .  A
C1070      H1086   1.110       .  S
C1070      H1087   1.110       .  S
C1070      H1088   1.111       .  S
C1072      H1083   1.109       .  S
C1072      H1084   1.111       .  S
C1072      H1085   1.110       .  S
C1074      C1075   1.405       .  A
C1074      C1079   1.505       .  S
C1075      C1076   1.410       .  A
C1075      H1080   1.083       .  S
C1076      C1077   1.426       .  A
C1077      C1078   1.403       .  A
C1077      C1081   1.508       .  S
C1078      H1082   1.085       .  S
C1079      H1089   1.109       .  S
C1079      H1090   1.110       .  S
C1079      H1091   1.110       .  S
C1081      H1092   1.109       .  S
C1081      H1093   1.110       .  S
C1081      H1094   1.111       .  S
C1095      C1096   1.401       .  A
C1095      C1100   1.404       .  A
C1095      H1105   1.085       .  S
C1096      C1101   1.479       .  S
C1096      C1097   1.408       .  A
C1097      C1098   1.402       .  A
C1097      C1102   1.507       .  S
C1098      C1099   1.406       .  A
C1098      H1103   1.084       .  S
C1099      C1100   1.418       .  A
C1100      C1104   1.508       .  S
C1101      C1106   1.411       .  A
C1101      C1110   1.399       .  A
C1102      H1118   1.110       .  S
C1102      H1119   1.110       .  S
C1102      H1120   1.111       .  S
C1104      H1115   1.111       .  S
C1104      H1116   1.110       .  S
C1104      H1117   1.106       .  S
C1106      C1107   1.405   1_554  A
C1106      C1111   1.506       .  S
C1107      C1108   1.405       .  A
C1107      H1112   1.084       .  S
C1108      C1109   1.417       .  A
C1109      C1110   1.402   1_556  A
C1109      C1113   1.508       .  S
C1110      H1114   1.085       .  S
C1111      H1121   1.111       .  S
C1111      H1122   1.110       .  S
C1111      H1123   1.110       .  S
C1113      H1124   1.110       .  S
C1113      H1125   1.107       .  S
C1113      H1126   1.111       .  S
C1127      N1128   1.361       .  A
C1127      N1132   1.356       .  A
C1127      C1630   1.489       .  S
N1128      C1129   1.359       .  A
C1129      N1130   1.359       .  A
C1129      C1607   1.474       .  S
N1130      C1131   1.360       .  A
C1131      N1132   1.357       .  A
C1131      C1662   1.480       .  S
C1133      N1134   1.358       .  A
C1133      N1138   1.361       .  A
C1133      C1566   1.486       .  S
N1134      C1135   1.357       .  A
C1135      N1136   1.357       .  A
C1135      C1534   1.480       .  S
N1136      C1137   1.359       .  A
C1137      N1138   1.361       .  A
C1137      C1671   1.477       .  S
C1139      N1140   1.359       .  A
C1139      N1144   1.362       .  A
C1139      C1447   1.484       .  S
N1140      C1141   1.360       .  A
C1141      N1142   1.360       .  A
C1141      C1511   1.481       .  S
N1142      C1143   1.358       .  A
C1143      N1144   1.361       .  A
C1143      C1470   1.481       .  S
C1145      N1146   1.358       .  A
C1145      N1150   1.359       .  A
C1145      C1374   1.485       .  S
N1146      C1147   1.359       .  A
C1147      N1148   1.360       .  A
C1147      C1502   1.487       .  S
N1148      C1149   1.358       .  A
C1149      N1150   1.358       .  A
C1149      C1415   1.479       .  S
C1151      N1152   1.357   1_655  A
C1151      N1156   1.360       .  A
C1151      C1319   1.483       .  S
N1152      C1153   1.358       .  A
C1153      N1154   1.362   1_455  A
C1153      C1342   1.494       .  S
N1154      C1155   1.360       .  A
C1155      N1156   1.360       .  A
C1155      C1278   1.488       .  S
C1157      N1158   1.359       .  A
C1157      N1162   1.359       .  A
C1157      C1255   1.484       .  S
N1158      C1159   1.360       .  A
C1159      N1160   1.360       .  A
C1159      C1351   1.478       .  S
N1160      C1161   1.358       .  A
C1161      N1162   1.358       .  A
C1161      C1223   1.479       .  S
O1163     Mn1189   2.106   1_565  S
O1163      C1753   1.274       .  A
C1164      C1575   1.488       .  S
C1164      O1197   1.271       .  A
C1164      O1194   1.274       .  A
O1165     Mn1172   2.167       .  S
O1165     Mn1183   2.130       .  S
O1165     Mn1187   2.173       .  S
O1165     Mn1752   2.128       .  S
O1166     Mn1200   2.101       .  S
O1166      C1176   1.275       .  A
O1167     Mn1183   2.095       .  S
O1167      C1190   1.271       .  A
O1168     Mn1187   2.110       .  S
O1168      C1195   1.256       .  A
O1169     Mn1189   1.970       .  S
O1169      C1185   1.221       .  S
C1170      C1479   1.502       .  S
C1170      O1173   1.257       .  A
C1170      O1196   1.217       .  S
O1171     Mn1172   2.158       .  S
O1171     Mn1205   2.121       .  S
O1171     Mn1187   2.167       .  S
Mn1172     O1177   2.095       .  S
Mn1172     O1767   2.089       .  S
O1174     Mn1181   2.090       .  S
O1174      C1176   1.270       .  A
C1175      C1406   1.490       .  S
C1175      O1201   1.254       .  A
C1175      O1188   1.216       .  S
C1176      C1639   1.497       .  S
O1177      C1202   1.250       .  A
O1178     Mn1181   2.119       .  S
O1178     Mn1200   2.136       .  S
O1179     Mn1183   1.958       .  S
O1179     Mn1205   1.967       .  S
O1179      C1202   1.220       .  S
C1180      C1310   1.488       .  S
C1180      O1182   1.270       .  A
Mn1181     O1194   2.110       .  S
Mn1181     O1759   1.969   1_545  S
Mn1181     O1751   1.969   1_545  S
O1182     Mn1205   2.088       .  S
Mn1183     O1199   2.087       .  S
Mn1183     O1193   1.956       .  S
O1184     Mn1189   2.103   1_565  S
O1184      C1749   1.273       .  A
C1185      C1287   1.486       .  S
C1185      O1203   1.255       .  A
C1186      C1383   1.483       .  S
C1186      O1747   1.273       .  A
C1186      O1199   1.271       .  A
Mn1187     O1766   2.107       .  S
O1188     Mn1744   1.969       .  S
O1188     Mn1191   1.955       .  S
Mn1189     O1728   2.128   1_545  S
Mn1189     O1207   1.974       .  S
C1190      C1438   1.482       .  S
C1190      O1726   1.274       .  A
Mn1191     O1198   2.084       .  S
Mn1191     O1206   2.097       .  S
Mn1191     O1196   1.957       .  S
C1192      C1246   1.484       .  S
C1192      O1208   1.275       .  A
O1193     Mn1205   1.965       .  S
O1193      C1195   1.218       .  S
C1195      C1598   1.496       .  S
O1196     Mn1744   1.969       .  S
O1197     Mn1200   2.091       .  S
C1202      C1543   1.490       .  S
O1203     Mn1750   2.107   1_545  S
O1204     Mn1735   2.089   1_545  S
O1204      C1209   1.251       .  A
Mn1205     O1208   2.106       .  S
O1207      C1209   1.223       .  S
C1209      C1214   1.491       .  S
C1210      C1211   1.401   1_455  A
C1210      C1215   1.407       .  A
C1211      C1216   1.484   1_655  S
C1211      C1212   1.409       .  A
C1212      C1213   1.402       .  A
C1212      C1217   1.507       .  S
C1213      C1214   1.407       .  A
C1213      H1218   1.084       .  S
C1214      C1215   1.422   1_655  A
C1216      C1221   1.411   1_455  A
C1216      C1225   1.402       .  A
C1217      H1233   1.110       .  S
C1217      H1234   1.110       .  S
C1217      H1235   1.111       .  S
C1219      H1231   1.111       .  S
C1219      H1232   1.108       .  S
C1221      C1222   1.405       .  A
C1221      C1226   1.506       .  S
C1222      C1223   1.405   1_655  A
C1222      H1227   1.084       .  S
C1223      C1224   1.416       .  A
C1224      C1225   1.404       .  A
C1226      H1236   1.111       .  S
C1226      H1237   1.110       .  S
C1226      H1238   1.111       .  S
C1228      H1239   1.111       .  S
C1228      H1240   1.107       .  S
C1228      H1241   1.110       .  S
C1242      C1243   1.401   1_655  A
C1242      C1247   1.405       .  A
C1242      H1252   1.084       .  S
C1243      C1248   1.480       .  S
C1243      C1244   1.408       .  A
C1245      H1250   1.084       .  S
C1246      C1247   1.418       .  A
C1247      C1251   1.505       .  S
C1248      C1253   1.409       .  A
C1248      C1257   1.399   1_455  A
C1249      H1265   1.110       .  S
C1249      H1266   1.110       .  S
C1249      H1267   1.111       .  S
C1251      H1262   1.111       .  S
C1251      H1263   1.110       .  S
C1251      H1264   1.105       .  S
C1253      C1254   1.406       .  A
C1254      C1255   1.408       .  A
C1255      C1256   1.419   1_455  A
C1256      C1257   1.402       .  A
C1256      C1260   1.509       .  S
C1257      H1261   1.085       .  S
C1258      H1268   1.111       .  S
C1258      H1269   1.110       .  S
C1258      H1270   1.110       .  S
C1260      H1271   1.111       .  S
C1260      H1272   1.106       .  S
C1260      H1273   1.110       .  S
C1274      C1275   1.400       .  A
C1274      C1279   1.406       .  A
C1274      H1284   1.085       .  S
C1275      C1280   1.486       .  S
C1276      C1277   1.405       .  A
C1276      C1281   1.509       .  S
C1277      H1282   1.084       .  S
C1278      C1279   1.421       .  A
C1279      C1283   1.508       .  S
C1280      C1285   1.410       .  A
C1280      C1289   1.404       .  A
C1281      H1297   1.108       .  S
C1281      H1298   1.108       .  S
C1281      H1299   1.111       .  S
C1283      H1294   1.111       .  S
C1283      H1295   1.110       .  S
C1283      H1296   1.105       .  S
C1285      C1286   1.403       .  A
C1285      C1290   1.508       .  S
C1286      C1287   1.406       .  A
C1286      H1291   1.084       .  S
C1287      C1288   1.417       .  A
C1288      C1289   1.409       .  A
C1288      C1292   1.507   1_655  S
C1289      H1293   1.084   1_655  S
C1290      H1300   1.111       .  S
C1290      H1301   1.110       .  S
C1292      H1303   1.110   1_455  S
C1292      H1304   1.108       .  S
C1306      C1307   1.398       .  A
C1306      C1311   1.403       .  A
C1306      H1316   1.085       .  S
C1307      C1312   1.481       .  S
C1308      C1309   1.405       .  A
C1308      C1313   1.504       .  S
C1309      H1314   1.084       .  S
C1310      C1311   1.422       .  A
C1311      C1315   1.509       .  S
C1312      C1321   1.400       .  A
C1313      H1330   1.109       .  S
C1313      H1331   1.108       .  S
C1315      H1326   1.111       .  S
C1315      H1327   1.109       .  S
C1315      H1328   1.111       .  S
C1317      C1318   1.402       .  A
C1317      C1322   1.507       .  S
C1318      H1323   1.084       .  S
C1319      C1320   1.421       .  A
C1320      C1321   1.405       .  A
C1320      C1324   1.509       .  S
C1321      H1325   1.085       .  S
C1322      H1332   1.111       .  S
C1322      H1333   1.110       .  S
C1322      H1334   1.110       .  S
C1324      H1335   1.111       .  S
C1324      H1336   1.105       .  S
C1324      H1337   1.110       .  S
C1338      C1339   1.399       .  A
C1338      C1343   1.405       .  A
C1339      C1344   1.482       .  S
C1339      C1340   1.408   1_455  A
C1340      C1341   1.403       .  A
C1340      C1345   1.506       .  S
C1341      C1342   1.409   1_655  A
C1341      H1346   1.084       .  S
C1342      C1343   1.424       .  A
C1344      C1349   1.410   1_455  A
C1345      H1361   1.110       .  S
C1345      H1362   1.110       .  S
C1345      H1363   1.111       .  S
C1347      H1359   1.111       .  S
C1347      H1360   1.110       .  S
C1349      C1350   1.404   1_554  A
C1349      C1354   1.506       .  S
C1350      C1351   1.404   1_655  A
C1350      H1355   1.084       .  S
C1352      C1353   1.404   1_556  A
C1352      C1356   1.508       .  S
C1353      H1357   1.085       .  S
C1354      H1364   1.111       .  S
C1354      H1365   1.110       .  S
C1354      H1366   1.110       .  S
C1356      H1367   1.111       .  S
C1356      H1368   1.106       .  S
C1356      H1369   1.110       .  S
C1370      C1934   1.399       .  A
C1370      C1375   1.404       .  A
C1370      H1380   1.085       .  S
C1371      C1376   1.481       .  S
C1371      C1933   1.399       .  A
C1371      C1372   1.409       .  A
C1372      C1373   1.405       .  A
C1372      C1377   1.507       .  S
C1373      C1374   1.407       .  A
C1373      H1378   1.084       .  S
C1374      C1938   1.421       .  A
C1375      C1937   1.421       .  A
C1375      C1379   1.509   1_565  S
C1376      C1381   1.408       .  A
C1376      C1385   1.402       .  A
C1377      H1393   1.110       .  S
C1377      H1394   1.110       .  S
C1377      H1395   1.111       .  S
C1379      H1390   1.110   1_545  S
C1379      H1391   1.111       .  S
C1379      H1392   1.105       .  S
C1381      C1382   1.401       .  A
C1381      C1386   1.507       .  S
C1382      C1383   1.407       .  A
C1382      H1387   1.084       .  S
C1383      C1384   1.419       .  A
C1384      C1385   1.406       .  A
C1384      C1951   1.506       .  S
C1385      H1952   1.085       .  S
C1386      H1396   1.111       .  S
C1386      H1397   1.110       .  S
C1386      H1398   1.110       .  S
C1388      C1947   1.506   1_545  S
C1388      H1399   1.110       .  S
C1388      H1400   1.104       .  S
C1388      H1401   1.111       .  S
H1389      C1948   1.085       .  S
C1402      C1403   1.396       .  A
C1402      C1407   1.400       .  A
C1402      H1975   1.085       .  S
C1403      C1408   1.482       .  S
C1403      C1404   1.409       .  A
C1404      C1405   1.408       .  A
C1404      C1409   1.504       .  S
C1405      C1406   1.410       .  A
C1405      H1410   1.084       .  S
C1406      C1407   1.426       .  A
C1407      C1974   1.509       .  S
C1408      C1413   1.411       .  A
C1408      C1980   1.401       .  A
C1409      H1425   1.110       .  S
C1409      H1426   1.110       .  S
C1409      H1427   1.111       .  S
C1411      C1970   1.509   1_545  S
C1411      H1422   1.110   1_545  S
C1411      H1423   1.111       .  S
C1411      H1424   1.098       .  S
H1412      C1965   1.085       .  S
C1413      C1414   1.404       .  A
C1413      C1418   1.507       .  S
C1414      C1415   1.404       .  A
C1414      H1419   1.084       .  S
C1415      C1979   1.419       .  A
C1416      C1978   1.419       .  A
C1416      C1417   1.405       .  A
C1416      C1420   1.509   1_565  S
C1417      C1971   1.401       .  A
C1417      H1421   1.085       .  S
C1418      H1428   1.111       .  S
C1418      H1429   1.110       .  S
C1418      H1430   1.110       .  S
C1420      H1431   1.111       .  S
C1420      H1432   1.105       .  S
C1420      H1433   1.110   1_545  S
C1434      C1435   1.400       .  A
C1434      C1439   1.403       .  A
C1434      H2007   1.085       .  S
C1435      C1440   1.488       .  S
C1435      C1436   1.412       .  A
C1436      C1437   1.410       .  A
C1436      C1441   1.505       .  S
C1437      C1438   1.406       .  A
C1437      H1442   1.085       .  S
C1438      C1439   1.419       .  A
C1439      C2006   1.510       .  S
C1440      C1445   1.412       .  A
C1440      C1449   1.401       .  A
C1441      H1457   1.110       .  S
C1441      H1458   1.110       .  S
C1441      H1459   1.110       .  S
C1443      C2002   1.510       .  S
C1443      H1454   1.111       .  S
C1443      H1455   1.110   1_565  S
C1443      H1456   1.106       .  S
H1444      C1997   1.085       .  S
C1445      C1446   1.407       .  A
C1445      C1450   1.506       .  S
C1446      C1447   1.405       .  A
C1446      H1451   1.084       .  S
C1447      C1448   1.420       .  A
C1448      C1449   1.406       .  A
C1448      C2015   1.508       .  S
C1449      H1453   1.084       .  S
C1450      H1460   1.111       .  S
C1450      H1461   1.110       .  S
C1450      H1462   1.111       .  S
C1452      C2011   1.508   1_545  S
C1452      H1463   1.111       .  S
C1452      H2027   1.106       .  S
C1452      H2028   1.110       .  S
H1464      C2015   1.106       .  S
H1465      C2015   1.110       .  S
C1466      C1467   1.404       .  A
C1466      C1471   1.405       .  A
C1466      H1476   1.084       .  S
C1467      C1472   1.489       .  S
C1467      C1468   1.413       .  A
C1468      C1469   1.409       .  A
C1468      C2036   1.507       .  S
C1469      C1470   1.405       .  A
C1469      H1474   1.084       .  S
C1470      C1471   1.415       .  A
C1471      C1475   1.507       .  S
C1472      C1477   1.412       .  A
C1472      C1481   1.397       .  A
C1473      C2031   1.507   1_545  S
C1473      H2052   1.110       .  S
C1473      H1490   1.108       .  S
C1473      H1491   1.111       .  S
C1475      H1486   1.111       .  S
C1475      H1487   1.110       .  S
C1475      H1488   1.108       .  S
C1477      C1478   1.412       .  A
C1477      C2045   1.507       .  S
C1478      C1479   1.410       .  A
C1478      H2046   1.083       .  S
C1479      C1480   1.427       .  A
C1480      C1481   1.404       .  A
C1480      C1484   1.510       .  S
C1481      H1485   1.085       .  S
C1482      C2040   1.507       .  S
C1482      H1492   1.111       .  S
C1482      H2056   1.109       .  S
C1482      H1494   1.108       .  S
H1483      C2041   1.083       .  S
C1484      H1495   1.111       .  S
C1484      H1496   1.110       .  S
C1484      H1497   1.108       .  S
H1489      C2036   1.110       .  S
H1493      C2045   1.109       .  S
C1498      C1499   1.399       .  A
C1498      C1503   1.404   1_554  A
C1498      H2071   1.084       .  S
C1499      C1504   1.481       .  S
C1499      C1500   1.409       .  A
C1500      C1501   1.404   1_554  A
C1500      C1505   1.506       .  S
C1501      C1502   1.407       .  A
C1501      H1506   1.084       .  S
C1502      C1503   1.421       .  A
C1503      C2070   1.508       .  S
C1504      C1509   1.410       .  A
C1504      C1513   1.400       .  A
C1505      H1521   1.110       .  S
C1505      H1522   1.110       .  S
C1505      H1523   1.111       .  S
C1507      C2066   1.508       .  S
C1507      H1518   1.109       .  S
C1507      H1519   1.111       .  S
C1507      H1520   1.110   1_565  S
H1508      C2061   1.084       .  S
C1509      C1510   1.405       .  A
C1509      C1514   1.506       .  S
C1510      C1511   1.406       .  A
C1510      H1515   1.084       .  S
C1511      C1512   1.418       .  A
C1512      C1513   1.403       .  A
C1512      C2079   1.508       .  S
C1513      H2080   1.085       .  S
C1514      H1524   1.111       .  S
C1514      H1525   1.110       .  S
C1514      H1526   1.110       .  S
C1516      C2075   1.508   1_545  S
C1516      H1527   1.111       .  S
C1516      H1528   1.106       .  S
C1516      H1529   1.110       .  S
H1517      C2076   1.085       .  S
C1530      C1531   1.402       .  A
C1530      C1535   1.403       .  A
C1530      H1540   1.084       .  S
C1531      C1536   1.483       .  S
C1531      C1532   1.411       .  A
C1532      C1533   1.405       .  A
C1532      C1537   1.506       .  S
C1533      C1534   1.405       .  A
C1533      H1538   1.084       .  S
C1534      C1535   1.415       .  A
C1535      C1539   1.507       .  S
C1536      C1541   1.410       .  A
C1536      C1545   1.401       .  A
C1537      H1553   1.110       .  S
C1537      H1554   1.111       .  S
C1537      H1555   1.111       .  S
C1539      H1550   1.111       .  S
C1539      H1551   1.110       .  S
C1539      H1552   1.109       .  S
C1541      C1542   1.399       .  A
C1541      C1546   1.508       .  S
C1542      C1543   1.406       .  A
C1542      H1547   1.084       .  S
C1543      C1544   1.421       .  A
C1544      C1545   1.408       .  A
C1544      C1548   1.507       .  S
C1545      H1549   1.084       .  S
C1546      H1556   1.111       .  S
C1546      H1557   1.109       .  S
C1546      H1558   1.111       .  S
C1548      H1559   1.111       .  S
C1548      H1560   1.109       .  S
C1548      H1561   1.110       .  S
C1562      C1563   1.399       .  A
C1562      C1567   1.404       .  A
C1562      H1572   1.084       .  S
C1563      C1568   1.482       .  S
C1563      C1564   1.410       .  A
C1564      C1565   1.407       .  A
C1564      C1569   1.506       .  S
C1565      C1566   1.407       .  A
C1565      H1570   1.084       .  S
C1566      C1567   1.420       .  A
C1567      C1571   1.509       .  S
C1568      C1573   1.409       .  A
C1568      C1577   1.400       .  A
C1569      H1585   1.110       .  S
C1569      H1586   1.110       .  S
C1569      H1587   1.111       .  S
C1571      H1582   1.109       .  S
C1571      H1583   1.111       .  S
C1571      H1584   1.111       .  S
C1573      C1574   1.403       .  A
C1573      C1578   1.506       .  S
C1574      C1575   1.408       .  A
C1574      H1579   1.084       .  S
C1575      C1576   1.420       .  A
C1576      C1577   1.405       .  A
C1576      C1580   1.504       .  S
C1577      H1581   1.085       .  S
C1578      H1588   1.111       .  S
C1578      H1589   1.110       .  S
C1578      H1590   1.110       .  S
C1580      H1591   1.110       .  S
C1580      H1592   1.101       .  S
C1580      H1593   1.111       .  S
C1594      C1595   1.398       .  A
C1594      C1599   1.403       .  A
C1594      H1604   1.084       .  S
C1595      C1600   1.485       .  S
C1595      C1596   1.410       .  A
C1596      C1597   1.407       .  A
C1596      C1601   1.506       .  S
C1597      C1598   1.409       .  A
C1597      H1602   1.084       .  S
C1598      C1599   1.426       .  A
C1599      C1603   1.510       .  S
C1600      C1605   1.412       .  A
C1600      C1609   1.403       .  A
C1601      H1617   1.109       .  S
C1601      H1618   1.110       .  S
C1601      H1619   1.111       .  S
C1603      H1614   1.111       .  S
C1603      H1615   1.110       .  S
C1603      H1616   1.110       .  S
C1605      C1606   1.405       .  A
C1605      C1610   1.507       .  S
C1606      C1607   1.402       .  A
C1606      H1611   1.085       .  S
C1607      C1608   1.414       .  A
C1608      C1609   1.404       .  A
C1608      C1612   1.507       .  S
C1609      H1613   1.084       .  S
C1610      H1620   1.111       .  S
C1610      H1621   1.110       .  S
C1610      H1622   1.110       .  S
C1612      H1623   1.111       .  S
C1612      H1624   1.108       .  S
C1612      H1625   1.110       .  S
C1626      C1627   1.398       .  A
C1626      C1631   1.405       .  A
C1626      H1636   1.085       .  S
C1627      C1632   1.481       .  S
C1627      C1628   1.410       .  A
C1628      C1629   1.403       .  A
C1628      C1633   1.507       .  S
C1629      C1630   1.407       .  A
C1629      H1634   1.084       .  S
C1630      C1631   1.422       .  A
C1631      C1635   1.508       .  S
C1632      C1637   1.408       .  A
C1632      C1641   1.396       .  A
C1633      H1649   1.110       .  S
C1633      H1650   1.110       .  S
C1633      H1651   1.111       .  S
C1635      H1646   1.109       .  S
C1635      H1647   1.111       .  S
C1635      H1648   1.110       .  S
C1637      C1638   1.405       .  A
C1637      C1642   1.505       .  S
C1638      C1639   1.410       .  A
C1638      H1643   1.083       .  S
C1639      C1640   1.426       .  A
C1640      C1641   1.403       .  A
C1640      C1644   1.508       .  S
C1641      H1645   1.085       .  S
C1642      H1652   1.109       .  S
C1642      H1653   1.110       .  S
C1642      H1654   1.110       .  S
C1644      H1655   1.109       .  S
C1644      H1656   1.110       .  S
C1644      H1657   1.111       .  S
C1658      C1659   1.401       .  A
C1658      C1663   1.404       .  A
C1658      H1668   1.085       .  S
C1659      C1664   1.480       .  S
C1659      C1660   1.408       .  A
C1660      C1661   1.402       .  A
C1660      C1665   1.507       .  S
C1661      C1662   1.406       .  A
C1661      H1666   1.084       .  S
C1662      C1663   1.418       .  A
C1663      C1667   1.508       .  S
C1664      C1669   1.411       .  A
C1664      C1673   1.399       .  A
C1665      H1681   1.110       .  S
C1665      H1682   1.110       .  S
C1665      H1683   1.111       .  S
C1667      H1678   1.111       .  S
C1667      H1679   1.110       .  S
C1667      H1680   1.106       .  S
C1669      C1670   1.405   1_554  A
C1669      C1674   1.506       .  S
C1670      C1671   1.405       .  A
C1670      H1675   1.084       .  S
C1671      C1672   1.417       .  A
C1672      C1673   1.402   1_556  A
C1672      C1676   1.508       .  S
C1673      H1677   1.085       .  S
C1674      H1684   1.111       .  S
C1674      H1685   1.110       .  S
C1674      H1686   1.110       .  S
C1676      H1687   1.110       .  S
C1676      H1688   1.107       .  S
C1676      H1689   1.111       .  S
C1690      N1691   1.361       .  A
C1690      N1695   1.356       .  A
C1690      C2193   1.490       .  S
N1691      C1692   1.359       .  A
C1692      N1693   1.359       .  A
C1692      C2170   1.474       .  S
N1693      C1694   1.360       .  A
C1694      N1695   1.357       .  A
C1694      C2225   1.480       .  S
C1696      N1697   1.358       .  A
C1696      N1701   1.361       .  A
C1696      C2129   1.486       .  S
N1697      C1698   1.357       .  A
C1698      N1699   1.357       .  A
C1698      C2097   1.480       .  S
N1699      C1700   1.359       .  A
C1700      N1701   1.361       .  A
C1700      C2234   1.477       .  S
C1702      N1703   1.359       .  A
C1702      N1707   1.362       .  A
C1702      C2010   1.484       .  S
N1703      C1704   1.360       .  A
C1704      N1705   1.360       .  A
C1704      C2074   1.481       .  S
N1705      C1706   1.358       .  A
C1706      N1707   1.361       .  A
C1706      C2033   1.481       .  S
C1708      N1709   1.358       .  A
C1708      N1713   1.359       .  A
C1708      C1937   1.485       .  S
N1709      C1710   1.359       .  A
C1710      N1711   1.360       .  A
C1710      C2065   1.487       .  S
N1711      C1712   1.358       .  A
C1712      N1713   1.358       .  A
C1712      C1978   1.479       .  S
C1714      N1715   1.357   1_655  A
C1714      N1719   1.360       .  A
C1714      C1882   1.483       .  S
N1715      C1716   1.358       .  A
C1716      N1717   1.362   1_455  A
C1716      C1905   1.494       .  S
N1717      C1718   1.360       .  A
C1718      N1719   1.360       .  A
C1718      C1841   1.488       .  S
C1720      N1721   1.359       .  A
C1720      N1725   1.359       .  A
C1720      C1818   1.484       .  S
N1721      C1722   1.360       .  A
C1722      N1723   1.360       .  A
C1722      C1914   1.478       .  S
N1723      C1724   1.358       .  A
C1724      N1725   1.358       .  A
C1724      C1786   1.478       .  S
O1726     Mn1752   2.106       .  S
C1727      C2138   1.488       .  S
C1727      O1760   1.271       .  A
C1727      O1757   1.274       .  A
O1728     Mn1735   2.167       .  S
O1728     Mn1746   2.130       .  S
O1728     Mn1750   2.173       .  S
O1729     Mn1763   2.101       .  S
O1729      C1739   1.275       .  A
O1730     Mn1746   2.095       .  S
O1730      C1753   1.271       .  A
O1731     Mn1750   2.110       .  S
O1731      C1758   1.256       .  A
O1732     Mn1752   1.970       .  S
O1732      C1748   1.221       .  S
C1733      C2042   1.502       .  S
C1733      O1736   1.257       .  A
C1733      O1759   1.217       .  S
O1734     Mn1735   2.158       .  S
O1734     Mn1768   2.121       .  S
O1734     Mn1750   2.167       .  S
Mn1735     O1740   2.095       .  S
O1737     Mn1744   2.090       .  S
O1737      C1739   1.270       .  A
C1738      C1969   1.490       .  S
C1738      O1764   1.254       .  A
C1738      O1751   1.216       .  S
C1739      C2202   1.497       .  S
O1740      C1765   1.250       .  A
O1741     Mn1744   2.119       .  S
O1741     Mn1763   2.136       .  S
O1742     Mn1746   1.958       .  S
O1742     Mn1768   1.967       .  S
O1742      C1765   1.220       .  S
C1743      C1873   1.488       .  S
C1743      O1745   1.270       .  A
Mn1744     O1757   2.110       .  S
O1745     Mn1768   2.088       .  S
Mn1746     O1762   2.087       .  S
Mn1746     O1756   1.956       .  S
O1747     Mn1752   2.103       .  S
C1748      C1850   1.486       .  S
C1748      O1766   1.255       .  A
C1749      C1946   1.483       .  S
C1749      O1762   1.271       .  A
O1751     Mn1754   1.955       .  S
Mn1752     O1770   1.974       .  S
C1753      C2001   1.482       .  S
Mn1754     O1761   2.084       .  S
Mn1754     O1769   2.097       .  S
Mn1754     O1759   1.957       .  S
C1755      C1809   1.484       .  S
C1755      O1771   1.275       .  A
O1756     Mn1768   1.965       .  S
O1756      C1758   1.218       .  S
C1758      C2161   1.496       .  S
O1760     Mn1763   2.091       .  S
C1765      C2106   1.490       .  S
O1767      C1772   1.251       .  A
Mn1768     O1771   2.106       .  S
O1770      C1772   1.223       .  S
C1772      C1777   1.491       .  S
C1773      C1774   1.401   1_455  A
C1773      C1778   1.407       .  A
C1774      C1779   1.484   1_655  S
C1774      C1775   1.409       .  A
C1775      C1776   1.402       .  A
C1775      C1780   1.507       .  S
C1776      C1777   1.407       .  A
C1776      H1781   1.084       .  S
C1777      C1778   1.422   1_655  A
C1779      C1784   1.411   1_455  A
C1779      C1788   1.402       .  A
C1780      H1796   1.110       .  S
C1780      H1797   1.110       .  S
C1780      H1798   1.111       .  S
C1782      H1794   1.111       .  S
C1782      H1795   1.108       .  S
C1784      C1785   1.405       .  A
C1784      C1789   1.506       .  S
C1785      C1786   1.405   1_655  A
C1785      H1790   1.084       .  S
C1786      C1787   1.416       .  A
C1787      C1788   1.404       .  A
C1789      H1799   1.111       .  S
C1789      H1800   1.110       .  S
C1789      H1801   1.111       .  S
C1791      H1802   1.111       .  S
C1791      H1803   1.107       .  S
C1791      H1804   1.110       .  S
C1805      C1806   1.401   1_655  A
C1805      C1810   1.405       .  A
C1805      H1815   1.084       .  S
C1806      C1811   1.480       .  S
C1806      C1807   1.408       .  A
C1808      H1813   1.084       .  S
C1809      C1810   1.418       .  A
C1810      C1814   1.505       .  S
C1811      C1816   1.409       .  A
C1811      C1820   1.399   1_455  A
C1812      H1828   1.110       .  S
C1812      H1829   1.110       .  S
C1812      H1830   1.111       .  S
C1814      H1825   1.111       .  S
C1814      H1826   1.110       .  S
C1814      H1827   1.105       .  S
C1816      C1817   1.406       .  A
C1817      C1818   1.408       .  A
C1818      C1819   1.419   1_455  A
C1819      C1820   1.402       .  A
C1819      C1823   1.509       .  S
C1820      H1824   1.085       .  S
C1821      H1831   1.111       .  S
C1821      H1832   1.110       .  S
C1821      H1833   1.110       .  S
C1823      H1834   1.111       .  S
C1823      H1835   1.106       .  S
C1823      H1836   1.110       .  S
C1837      C1838   1.400       .  A
C1837      C1842   1.406       .  A
C1837      H1847   1.085       .  S
C1838      C1843   1.486       .  S
C1839      C1840   1.405       .  A
C1839      C1844   1.509       .  S
C1840      H1845   1.084       .  S
C1841      C1842   1.421       .  A
C1842      C1846   1.508       .  S
C1843      C1848   1.410       .  A
C1843      C1852   1.404       .  A
C1844      H1860   1.108       .  S
C1844      H1861   1.108       .  S
C1844      H1862   1.111       .  S
C1846      H1857   1.111       .  S
C1846      H1858   1.110       .  S
C1846      H1859   1.105       .  S
C1848      C1849   1.403       .  A
C1848      C1853   1.508       .  S
C1849      C1850   1.406       .  A
C1849      H1854   1.084       .  S
C1850      C1851   1.417       .  A
C1851      C1852   1.409       .  A
C1851      C1855   1.507   1_655  S
C1852      H1856   1.084   1_655  S
C1853      H1863   1.111       .  S
C1853      H1864   1.110       .  S
C1855      H1866   1.110   1_455  S
C1855      H1867   1.109       .  S
C1869      C1870   1.398       .  A
C1869      C1874   1.403       .  A
C1869      H1879   1.085       .  S
C1870      C1875   1.481       .  S
C1871      C1872   1.405       .  A
C1871      C1876   1.504       .  S
C1872      H1877   1.084       .  S
C1873      C1874   1.422       .  A
C1874      C1878   1.509       .  S
C1875      C1884   1.400       .  A
C1876      H1893   1.109       .  S
C1876      H1894   1.108       .  S
C1878      H1889   1.111       .  S
C1878      H1890   1.109       .  S
C1878      H1891   1.111       .  S
C1880      C1881   1.402       .  A
C1880      C1885   1.507       .  S
C1881      H1886   1.084       .  S
C1882      C1883   1.421       .  A
C1883      C1884   1.406       .  A
C1883      C1887   1.509       .  S
C1884      H1888   1.085       .  S
C1885      H1895   1.111       .  S
C1885      H1896   1.110       .  S
C1885      H1897   1.110       .  S
C1887      H1898   1.111       .  S
C1887      H1899   1.105       .  S
C1887      H1900   1.110       .  S
C1901      C1902   1.399       .  A
C1901      C1906   1.405       .  A
C1902      C1907   1.482       .  S
C1902      C1903   1.408   1_455  A
C1903      C1904   1.403       .  A
C1903      C1908   1.506       .  S
C1904      C1905   1.409   1_655  A
C1904      H1909   1.084       .  S
C1905      C1906   1.424       .  A
C1907      C1912   1.410   1_455  A
C1908      H1924   1.110       .  S
C1908      H1925   1.110       .  S
C1908      H1926   1.111       .  S
C1910      H1922   1.111       .  S
C1910      H1923   1.110       .  S
C1912      C1913   1.404   1_554  A
C1912      C1917   1.506       .  S
C1913      C1914   1.404   1_655  A
C1913      H1918   1.084       .  S
C1915      C1916   1.404   1_556  A
C1915      C1919   1.508       .  S
C1916      H1920   1.085       .  S
C1917      H1927   1.111       .  S
C1917      H1928   1.110       .  S
C1917      H1929   1.110       .  S
C1919      H1930   1.111       .  S
C1919      H1931   1.106       .  S
C1919      H1932   1.110       .  S
C1933      C1938   1.404       .  A
C1933      H1943   1.085       .  S
C1934      C1939   1.481       .  S
C1934      C1935   1.409       .  A
C1935      C1936   1.405       .  A
C1935      C1940   1.507       .  S
C1936      C1937   1.407       .  A
C1936      H1941   1.084       .  S
C1938      C1942   1.509       .  S
C1939      C1944   1.408       .  A
C1939      C1948   1.402       .  A
C1940      H1956   1.110       .  S
C1940      H1957   1.110       .  S
C1940      H1958   1.111       .  S
C1942      H1953   1.110       .  S
C1942      H1954   1.111       .  S
C1942      H1955   1.105       .  S
C1944      C1945   1.401       .  A
C1944      C1949   1.507       .  S
C1945      C1946   1.407       .  A
C1945      H1950   1.084       .  S
C1946      C1947   1.419       .  A
C1947      C1948   1.406       .  A
C1949      H1959   1.111       .  S
C1949      H1960   1.110       .  S
C1949      H1961   1.110       .  S
C1951      H1962   1.110       .  S
C1951      H1963   1.104       .  S
C1951      H1964   1.111       .  S
C1965      C1966   1.396       .  A
C1965      C1970   1.400       .  A
C1966      C1971   1.482       .  S
C1966      C1967   1.409       .  A
C1967      C1968   1.408       .  A
C1967      C1972   1.504       .  S
C1968      C1969   1.410       .  A
C1968      H1973   1.084       .  S
C1969      C1970   1.426       .  A
C1971      C1976   1.411       .  A
C1972      H1988   1.110       .  S
C1972      H1989   1.110       .  S
C1972      H1990   1.111       .  S
C1974      H1985   1.110       .  S
C1974      H1986   1.111       .  S
C1974      H1987   1.098       .  S
C1976      C1977   1.404       .  A
C1976      C1981   1.507       .  S
C1977      C1978   1.404       .  A
C1977      H1982   1.084       .  S
C1979      C1980   1.405       .  A
C1979      C1983   1.509       .  S
C1980      H1984   1.085       .  S
C1981      H1991   1.111       .  S
C1981      H1992   1.110       .  S
C1981      H1993   1.110       .  S
C1983      H1994   1.111       .  S
C1983      H1995   1.105       .  S
C1983      H1996   1.110       .  S
C1997      C1998   1.400       .  A
C1997      C2002   1.403       .  A
C1998      C2003   1.488       .  S
C1998      C1999   1.412       .  A
C1999      C2000   1.410       .  A
C1999      C2004   1.505       .  S
C2000      C2001   1.406       .  A
C2000      H2005   1.085       .  S
C2001      C2002   1.419       .  A
C2003      C2008   1.412       .  A
C2003      C2012   1.401       .  A
C2004      H2020   1.110       .  S
C2004      H2021   1.110       .  S
C2004      H2022   1.110       .  S
C2006      H2017   1.111       .  S
C2006      H2018   1.110       .  S
C2006      H2019   1.106       .  S
C2008      C2009   1.407       .  A
C2008      C2013   1.506       .  S
C2009      C2010   1.405       .  A
C2009      H2014   1.084       .  S
C2010      C2011   1.420       .  A
C2011      C2012   1.406       .  A
C2012      H2016   1.084       .  S
C2013      H2023   1.111       .  S
C2013      H2024   1.110       .  S
C2013      H2025   1.111       .  S
C2015      H2026   1.111       .  S
C2029      C2030   1.404       .  A
C2029      C2034   1.405       .  A
C2029      H2039   1.084       .  S
C2030      C2035   1.489       .  S
C2030      C2031   1.413       .  A
C2031      C2032   1.409       .  A
C2032      C2033   1.405       .  A
C2032      H2037   1.084   1_565  S
C2033      C2034   1.415       .  A
C2034      C2038   1.507       .  S
C2035      C2040   1.412       .  A
C2035      C2044   1.397       .  A
C2036      H2053   1.108       .  S
C2036      H2054   1.111       .  S
C2038      H2049   1.111       .  S
C2038      H2050   1.110       .  S
C2038      H2051   1.108       .  S
C2040      C2041   1.412       .  A
C2041      C2042   1.410       .  A
C2042      C2043   1.427       .  A
C2043      C2044   1.404       .  A
C2043      C2047   1.510       .  S
C2044      H2048   1.085       .  S
C2045      H2055   1.111       .  S
C2045      H2057   1.108       .  S
C2047      H2058   1.111       .  S
C2047      H2059   1.110       .  S
C2047      H2060   1.108   1_565  S
C2061      C2062   1.399       .  A
C2061      C2066   1.404   1_554  A
C2062      C2067   1.481       .  S
C2062      C2063   1.409       .  A
C2063      C2064   1.404   1_554  A
C2063      C2068   1.506       .  S
C2064      C2065   1.407       .  A
C2064      H2069   1.084       .  S
C2065      C2066   1.421       .  A
C2067      C2072   1.410       .  A
C2067      C2076   1.400       .  A
C2068      H2084   1.110       .  S
C2068      H2085   1.110       .  S
C2068      H2086   1.111       .  S
C2070      H2081   1.109       .  S
C2070      H2082   1.111       .  S
C2070      H2083   1.110       .  S
C2072      C2073   1.405       .  A
C2072      C2077   1.506       .  S
C2073      C2074   1.406       .  A
C2073      H2078   1.084       .  S
C2074      C2075   1.418       .  A
C2075      C2076   1.403       .  A
C2077      H2087   1.111       .  S
C2077      H2088   1.110       .  S
C2077      H2089   1.110       .  S
C2079      H2090   1.111       .  S
C2079      H2091   1.106       .  S
C2079      H2092   1.110       .  S
C2093      C2094   1.402       .  A
C2093      C2098   1.403       .  A
C2093      H2103   1.084       .  S
C2094      C2099   1.483       .  S
C2094      C2095   1.411       .  A
C2095      C2096   1.405       .  A
C2095      C2100   1.506       .  S
C2096      C2097   1.405       .  A
C2096      H2101   1.084       .  S
C2097      C2098   1.415       .  A
C2098      C2102   1.507       .  S
C2099      C2104   1.410       .  A
C2099      C2108   1.401       .  A
C2100      H2116   1.110       .  S
C2100      H2117   1.111       .  S
C2100      H2118   1.111       .  S
C2102      H2113   1.111       .  S
C2102      H2114   1.110       .  S
C2102      H2115   1.109       .  S
C2104      C2105   1.399       .  A
C2104      C2109   1.508       .  S
C2105      C2106   1.406       .  A
C2105      H2110   1.084       .  S
C2106      C2107   1.421       .  A
C2107      C2108   1.408       .  A
C2107      C2111   1.507       .  S
C2108      H2112   1.084       .  S
C2109      H2119   1.111       .  S
C2109      H2120   1.109       .  S
C2109      H2121   1.111       .  S
C2111      H2122   1.111       .  S
C2111      H2123   1.109       .  S
C2111      H2124   1.110       .  S
C2125      C2126   1.399       .  A
C2125      C2130   1.404       .  A
C2125      H2135   1.084       .  S
C2126      C2131   1.482       .  S
C2126      C2127   1.410       .  A
C2127      C2128   1.407       .  A
C2127      C2132   1.506       .  S
C2128      C2129   1.407       .  A
C2128      H2133   1.084       .  S
C2129      C2130   1.420       .  A
C2130      C2134   1.509       .  S
C2131      C2136   1.409       .  A
C2131      C2140   1.400       .  A
C2132      H2148   1.110       .  S
C2132      H2149   1.110       .  S
C2132      H2150   1.111       .  S
C2134      H2145   1.109       .  S
C2134      H2146   1.111       .  S
C2134      H2147   1.111       .  S
C2136      C2137   1.403       .  A
C2136      C2141   1.506       .  S
C2137      C2138   1.408       .  A
C2137      H2142   1.084       .  S
C2138      C2139   1.420       .  A
C2139      C2140   1.405       .  A
C2139      C2143   1.504       .  S
C2140      H2144   1.085       .  S
C2141      H2151   1.111       .  S
C2141      H2152   1.110       .  S
C2141      H2153   1.110       .  S
C2143      H2154   1.110       .  S
C2143      H2155   1.101       .  S
C2143      H2156   1.111       .  S
C2157      C2158   1.398       .  A
C2157      C2162   1.403       .  A
C2157      H2167   1.084       .  S
C2158      C2163   1.485       .  S
C2158      C2159   1.410       .  A
C2159      C2160   1.407       .  A
C2159      C2164   1.506       .  S
C2160      C2161   1.409       .  A
C2160      H2165   1.084       .  S
C2161      C2162   1.426       .  A
C2162      C2166   1.510       .  S
C2163      C2168   1.412       .  A
C2163      C2172   1.403       .  A
C2164      H2180   1.109       .  S
C2164      H2181   1.110       .  S
C2164      H2182   1.111       .  S
C2166      H2177   1.111       .  S
C2166      H2178   1.110       .  S
C2166      H2179   1.110       .  S
C2168      C2169   1.405       .  A
C2168      C2173   1.507       .  S
C2169      C2170   1.402       .  A
C2169      H2174   1.085       .  S
C2170      C2171   1.414       .  A
C2171      C2172   1.404       .  A
C2171      C2175   1.507       .  S
C2172      H2176   1.084       .  S
C2173      H2183   1.111       .  S
C2173      H2184   1.110       .  S
C2173      H2185   1.110       .  S
C2175      H2186   1.111       .  S
C2175      H2187   1.108       .  S
C2175      H2188   1.110       .  S
C2189      C2190   1.398       .  A
C2189      C2194   1.405       .  A
C2189      H2199   1.085       .  S
C2190      C2195   1.481       .  S
C2190      C2191   1.410       .  A
C2191      C2192   1.403       .  A
C2191      C2196   1.507       .  S
C2192      C2193   1.407       .  A
C2192      H2197   1.084       .  S
C2193      C2194   1.423       .  A
C2194      C2198   1.508       .  S
C2195      C2200   1.408       .  A
C2195      C2204   1.396       .  A
C2196      H2212   1.110       .  S
C2196      H2213   1.110       .  S
C2196      H2214   1.111       .  S
C2198      H2209   1.109       .  S
C2198      H2210   1.111       .  S
C2198      H2211   1.110       .  S
C2200      C2201   1.405       .  A
C2200      C2205   1.505       .  S
C2201      C2202   1.411       .  A
C2201      H2206   1.083       .  S
C2202      C2203   1.426       .  A
C2203      C2204   1.403       .  A
C2203      C2207   1.508       .  S
C2204      H2208   1.085       .  S
C2205      H2215   1.109       .  S
C2205      H2216   1.110       .  S
C2205      H2217   1.110       .  S
C2207      H2218   1.109       .  S
C2207      H2219   1.110       .  S
C2207      H2220   1.111       .  S
C2221      C2222   1.401       .  A
C2221      C2226   1.404       .  A
C2221      H2231   1.085       .  S
C2222      C2227   1.479       .  S
C2222      C2223   1.408       .  A
C2223      C2224   1.402       .  A
C2223      C2228   1.507       .  S
C2224      C2225   1.406       .  A
C2224      H2229   1.084       .  S
C2225      C2226   1.418       .  A
C2226      C2230   1.508       .  S
C2227      C2232   1.411       .  A
C2227      C2236   1.399       .  A
C2228      H2244   1.110       .  S
C2228      H2245   1.110       .  S
C2228      H2246   1.111       .  S
C2230      H2241   1.111       .  S
C2230      H2242   1.110       .  S
C2230      H2243   1.106       .  S
C2232      C2233   1.405   1_554  A
C2232      C2237   1.506       .  S
C2233      C2234   1.405       .  A
C2233      H2238   1.084       .  S
C2234      C2235   1.417       .  A
C2235      C2236   1.402   1_556  A
C2235      C2239   1.508       .  S
C2236      H2240   1.085       .  S
C2237      H2247   1.111       .  S
C2237      H2248   1.110       .  S
C2237      H2249   1.110       .  S
C2239      H2250   1.110       .  S
C2239      H2251   1.107       .  S
C2239      H2252   1.111       .  S
