geometry optimzed in LAMMPS
_audit_creation_date              2020-11-30 
_audit_creation_method            'lammps2cif' 
_symmetry_space_group_name_H-M    'P1' 
_symmetry_Int_Tables_number       1 
_symmetry_cell_setting            triclinic 
loop_ 
_symmetry_equiv_pos_as_xyz 
  x,y,z 
_cell_length_a                    52.61945289 
_cell_length_b                    52.64743112415166 
_cell_length_c                    52.68344864606925 
_cell_angle_alpha                 89.94238917380747 
_cell_angle_beta                  90.06915042992706 
_cell_angle_gamma                 89.9873451443193 
loop_ 
_atom_site_label 
_atom_site_type_symbol 
_atom_site_fract_x 
_atom_site_fract_y 
_atom_site_fract_z 
_atom_site_charge 
C1          C  0.25525892  0.85333972  0.02437517     0.81200
N2          N  0.24986331  0.83997060  0.00295214    -0.77100
C3          C  0.24809223  0.85195520  0.98017065     0.83700
N4          N  0.25177115  0.87743137  0.97892584    -0.77000
C5          C  0.25749297  0.89095462  0.00005880     0.83800
N6          N  0.25901422  0.87881930  0.02272417    -0.78700
C7          C  0.62119204  0.11830056  0.02044249     0.81200
N8          N  0.62136646  0.13114920  0.99809660    -0.77100
C9          C  0.61718018  0.11898679  0.97575863     0.83700
N10         N  0.61279440  0.09355464  0.97597598    -0.77000
C11         C  0.61266041  0.08034303  0.99815261     0.83800
N12         N  0.61700502  0.09284725  0.02030008    -0.78700
C13         C  0.80016839  0.01180227  0.30152184     0.81200
N14         N  0.78648553  0.98990459  0.30131301    -0.77100
C15         C  0.79821160  0.96713825  0.30468178     0.83700
N16         N  0.82372604  0.96644029  0.30847880    -0.77000
C17         C  0.83766815  0.98812920  0.30867657     0.83800
N18         N  0.82574508  0.01075416  0.30500617    -0.78700
C19         C  0.05645362  0.00831207  0.69854342     0.81200
N20         N  0.03070557  0.00833888  0.69612270    -0.77100
C21         C  0.01747469  0.98617713  0.69533650     0.83700
N22         N  0.03022038  0.96384263  0.69705598    -0.77000
C23         C  0.05590626  0.96344307  0.69920167     0.83800
N24         N  0.06890444  0.98572301  0.70000445    -0.78700
C25         C  0.95601098  0.68897330  0.13803951     0.81200
N26         N  0.93372770  0.68890102  0.15112120    -0.77100
C27         C  0.91125201  0.68475696  0.13900536     0.83700
N28         N  0.91114974  0.68113384  0.11345078    -0.77000
C29         C  0.93322900  0.68116757  0.10010331     0.83800
N30         N  0.95551331  0.68505623  0.11253101    -0.78700
C31         C  0.90512348  0.28561394  0.86619273     0.81200
N32         N  0.92773356  0.28304359  0.85403473    -0.77100
C33         C  0.95003368  0.28613200  0.86676762     0.83700
N34         N  0.94947261  0.29193576  0.89190320    -0.77000
C35         C  0.92699705  0.29444747  0.90430812     0.83800
N36         N  0.90499098  0.29124223  0.89132608    -0.78700
C37         C  0.63605435  0.85450724  0.97764655     0.81200
N38         N  0.62701479  0.87861762  0.97661539    -0.77100
C39         C  0.61943134  0.89088873  0.99793259     0.83700
N40         N  0.62117873  0.87877221  0.02065375    -0.77000
C41         C  0.63020020  0.85461329  0.02214478     0.83800
N42         N  0.63764611  0.84264228  0.00051294    -0.78700
C43         C  0.23716173  0.11882502  0.02019919     0.81200
N44         N  0.23274711  0.13096571  0.99783256    -0.77100
C45         C  0.23555123  0.11854784  0.97538170     0.83700
N46         N  0.24251457  0.09368986  0.97556883    -0.77000
C47         C  0.24697664  0.08132228  0.99776201     0.83800
N48         N  0.24427840  0.09405453  0.01999555    -0.78700
C49         C  0.78762738  0.01247980  0.69282266     0.81200
N50         N  0.77462978  0.99016024  0.69291248    -0.77100
C51         C  0.78722082  0.96768715  0.69098768     0.83700
N52         N  0.81298693  0.96776858  0.68923642    -0.77000
C53         C  0.82617854  0.98987969  0.68946195     0.83800
N54         N  0.81336279  0.01213619  0.69118027    -0.78700
C55         C  0.06838764  0.96261729  0.30661386     0.81200
N56         N  0.04289520  0.96170295  0.31059939    -0.77100
C57         C  0.02918685  0.98344921  0.31305852     0.83700
N58         N  0.04123229  0.00624744  0.31146740    -0.77000
C59         C  0.06665437  0.00743566  0.30717226     0.83800
N60         N  0.08002835  0.98554739  0.30471999    -0.78700
C61         C  0.91442817  0.66991294  0.86795301     0.81200
N62         N  0.93747132  0.67197023  0.85655883    -0.77100
C63         C  0.95915513  0.67295101  0.87045807     0.83700
N64         N  0.95756758  0.67211728  0.89613888    -0.77000
C65         C  0.93477113  0.67002421  0.90803303     0.83800
N66         N  0.91317376  0.66892001  0.89377282    -0.78700
C67         C  0.91028808  0.30283543  0.13307958     0.81200
N68         N  0.91025726  0.30719387  0.10768638    -0.77100
C69         C  0.93244379  0.30910870  0.09464443     0.83700
N70         N  0.95482712  0.30711002  0.10745227    -0.77000
C71         C  0.95509139  0.30284757  0.13290143     0.83800
N72         N  0.93274794  0.30021731  0.14553181    -0.78700
C73         C  0.29388010  0.50930409  0.81232861     0.81200
N74         N  0.31919701  0.50952505  0.81725022    -0.77100
C75         C  0.33237697  0.48756392  0.81998084     0.83700
N76         N  0.31997979  0.46505207  0.81730232    -0.77000
C77         C  0.29453199  0.46444070  0.81255251     0.83800
N78         N  0.28162598  0.48670393  0.81004860    -0.78700
C79         C  0.29658927  0.46405912  0.19455332     0.81200
N80         N  0.32223254  0.46502884  0.19210853    -0.77100
C81         C  0.33431876  0.48745704  0.18837013     0.83700
N82         N  0.32051249  0.50915490  0.18713542    -0.77000
C83         C  0.29487715  0.50856325  0.18971480     0.83800
N84         N  0.28300414  0.48599985  0.19360567    -0.78700
C85         C  0.13051039  0.35774968  0.51829510     0.81200
N86         N  0.12822724  0.38341333  0.51906991    -0.77100
C87         C  0.12716054  0.39735697  0.49745744     0.83700
N88         N  0.12840983  0.38533728  0.47470954    -0.77000
C89         C  0.13078213  0.35967943  0.47344534     0.83800
N90         N  0.13185526  0.34602088  0.49536379    -0.78700
O91         O  0.18263142  0.27157232  0.69522026    -0.77500
C92         C  0.20790530  0.29833706  0.76912119     0.83600
O93         O  0.22872403  0.20140192  0.72914027    -0.78600
O94         O  0.18682670  0.22702016  0.80849061    -0.80100
O95         O  0.11624878  0.24627612  0.75259605    -0.79900
O96         O  0.14450001  0.25341344  0.69486070    -0.78500
Zn97       Zn  0.20055501  0.25932474  0.72658855     1.55700
O98         O  0.13634191  0.25877430  0.78773276    -0.79900
Cd99       Cd  0.14511575  0.23343103  0.72899060     1.59700
Cd100      Cd  0.19500628  0.20274880  0.74946355     1.59600
O101        O  0.13705726  0.19558389  0.72162582    -0.79900
O102        O  0.17891006  0.23710131  0.74628179    -1.90400
Cd103      Cd  0.17436406  0.25216837  0.78086907     1.59900
O104        O  0.17069288  0.17456789  0.73643189    -0.79800
O105        O  0.19396473  0.28636020  0.78490680    -0.78500
C106        C  0.24066006  0.21857008  0.71688776     0.84000
C107        C  0.16117662  0.26777378  0.68468910     0.83700
O108        O  0.21153864  0.28984619  0.74678951    -0.77400
C109        C  0.11596968  0.25522872  0.77510200     0.84500
O110        O  0.23194798  0.24105415  0.71503991    -0.77500
C111        C  0.14871175  0.17483176  0.72618049     0.84600
C112        C  0.19755964  0.20529163  0.80797355     0.85000
O113        O  0.20262596  0.19412392  0.78711587    -0.80000
C114        C  0.74045665  0.35064855  0.52065582     0.81200
N115        N  0.74705218  0.37564933  0.52035885    -0.77100
C116        C  0.75047428  0.38804829  0.49801673     0.83700
N117        N  0.74715459  0.37539787  0.47587849    -0.77000
C118        C  0.74108124  0.35035419  0.47578401     0.83800
N119        N  0.73759522  0.33814924  0.49824362    -0.78700
C120        C  0.40690613  0.17536198  0.63253533     0.81200
N121        N  0.42918849  0.17585812  0.64554605    -0.77100
C122        C  0.45161290  0.17136446  0.63356461     0.83700
N123        N  0.45151025  0.16638265  0.60827576    -0.77000
C124        C  0.42939681  0.16579521  0.59502792     0.83800
N125        N  0.40723029  0.17050010  0.60725756    -0.78700
O126        O  0.63990098  0.29352026  0.74886550    -0.77500
C127        C  0.69241492  0.27117580  0.68813960     0.83600
O128        O  0.62564264  0.20450920  0.73471235    -0.78600
O129        O  0.71759371  0.20150546  0.72658584    -0.80100
O130        O  0.71529833  0.26153189  0.79352500    -0.79900
O131        O  0.65875157  0.29113457  0.78665447    -0.78500
Zn132      Zn  0.65201436  0.26290596  0.72909925     1.55700
O133        O  0.73579013  0.25304410  0.75743115    -0.79900
Cd134      Cd  0.67727927  0.25654691  0.78469429     1.59700
Cd135      Cd  0.65961087  0.20685284  0.75344672     1.59600
O136        O  0.66168941  0.23290522  0.81210610    -0.79900
O137        O  0.67390182  0.24170092  0.75000760    -1.90400
Cd138      Cd  0.70803835  0.23884295  0.73391117     1.59900
O139        O  0.65340611  0.19723475  0.79090581    -0.79800
O140        O  0.70890985  0.25780721  0.69975565    -0.78500
C141        C  0.61338365  0.22034021  0.72115704     0.84000
C142        C  0.64427587  0.30252993  0.77091465     0.83700
O143        O  0.67037758  0.27507139  0.69743280    -0.77400
C144        C  0.73572550  0.25986093  0.78061420     0.84500
O145        O  0.62137269  0.24292864  0.71765157    -0.77500
C146        C  0.65419736  0.20988839  0.81148336     0.84600
C147        C  0.70539293  0.18072741  0.72864035     0.85000
O148        O  0.68303512  0.17981206  0.73776157    -0.80000
C149        C  0.12796430  0.62737134  0.52198355     0.81200
N150        N  0.12941072  0.64017565  0.49956924    -0.77100
C151        C  0.12869912  0.62724180  0.47723803     0.83700
N152        N  0.12709633  0.60157842  0.47735683    -0.77000
C153        C  0.12597511  0.58864559  0.49954996     0.83800
N154        N  0.12624353  0.60162555  0.52176270    -0.78700
O155        O  0.18149254  0.77123884  0.80603114    -0.77500
C156        C  0.15143271  0.80141784  0.73488089     0.83600
O157        O  0.13336051  0.70361975  0.76758278    -0.78600
O158        O  0.17256830  0.73539448  0.68915258    -0.80100
O159        O  0.24481176  0.74835861  0.74446611    -0.79900
O160        O  0.21971768  0.75376589  0.80269791    -0.78500
Zn161      Zn  0.16213949  0.76065797  0.77478076     1.55700
O162        O  0.22459813  0.76599723  0.71158008    -0.79900
Cd163      Cd  0.21663714  0.73522659  0.76814333     1.59700
Cd164      Cd  0.16626708  0.70654123  0.74655612     1.59600
O165        O  0.22312858  0.69725195  0.77502537    -0.79900
O166        O  0.18266607  0.74033742  0.75211827    -1.90400
Cd167      Cd  0.18653061  0.75785802  0.71854380     1.59900
O168        O  0.18959075  0.67729626  0.75877188    -0.79800
O169        O  0.16547855  0.79115278  0.71804625    -0.78500
C170        C  0.12288503  0.71896414  0.78304588     0.84000
C171        C  0.20361613  0.76701965  0.81492789     0.83700
O172        O  0.14897452  0.79164399  0.75686535    -0.77400
C173        C  0.24502471  0.76021850  0.72337087     0.84500
O174        O  0.13211106  0.74090786  0.78715979    -0.77500
C175        C  0.21097544  0.67690346  0.77017771     0.84600
C176        C  0.16119853  0.71399121  0.68850220     0.85000
O177        O  0.15724587  0.70113587  0.70865833    -0.80000
C178        C  0.56136191  0.51451530  0.81183956     0.81200
N179        N  0.57326587  0.49186270  0.80869609    -0.77100
C180        C  0.56062076  0.46968714  0.81230431     0.83700
N181        N  0.53565090  0.47043548  0.81883999    -0.77000
C182        C  0.52338791  0.49294462  0.82189823     0.83800
N183        N  0.53638510  0.51494678  0.81829678    -0.78700
C184        C  0.41298911  0.79555984  0.63886934     0.81200
N185        N  0.43543396  0.79265889  0.65141248    -0.77100
C186        C  0.45788027  0.79514837  0.63885009     0.83700
N187        N  0.45778394  0.80012562  0.61354885    -0.77000
C188        C  0.43553061  0.80277167  0.60073953     0.83800
N189        N  0.41334354  0.80048944  0.61359166    -0.78700
C190        C  0.74308340  0.61597068  0.47690405     0.81200
N191        N  0.74943975  0.59096604  0.47710897    -0.77100
C192        C  0.75374179  0.57845924  0.49927598     0.83700
N193        N  0.75150627  0.59131573  0.52153916    -0.77000
C194        C  0.74516915  0.61634741  0.52170391     0.83800
N195        N  0.74085063  0.62848393  0.49933817    -0.78700
O196        O  0.72274962  0.78650671  0.75041667    -0.77500
C197        C  0.67541879  0.76670890  0.81245992     0.83600
O198        O  0.73700266  0.69487282  0.76601763    -0.78600
O199        O  0.64524868  0.69748260  0.77656205    -0.80100
O200        O  0.64631225  0.75561780  0.70835052    -0.79900
O201        O  0.70261010  0.78319471  0.71331548    -0.78500
Zn202      Zn  0.71338442  0.75486286  0.77010248     1.55700
O203        O  0.62721307  0.74893108  0.74536789    -0.79900
Cd204      Cd  0.68434837  0.74891598  0.71601418     1.59700
Cd205      Cd  0.70279412  0.69916122  0.74695386     1.59600
O206        O  0.69835613  0.72516504  0.68817563    -0.79900
O207        O  0.68944744  0.73451352  0.75066160    -1.90400
Cd208      Cd  0.65578133  0.73428733  0.76818401     1.59900
O209        O  0.70871723  0.68983809  0.70903772    -0.79800
O210        O  0.65724713  0.75502051  0.80151789    -0.78500
C211        C  0.75110710  0.71081015  0.77755690     0.84000
C212        C  0.71675366  0.79537380  0.72867084     0.83700
O213        O  0.69755380  0.76745666  0.80269279    -0.77400
C214        C  0.62638459  0.75549789  0.72209101     0.84500
O215        O  0.74464903  0.73412453  0.77956281    -0.77500
C216        C  0.70661858  0.70241788  0.68841918     0.84600
C217        C  0.65564007  0.67593903  0.77282465     0.85000
O218        O  0.67722631  0.67368742  0.76210740    -0.80000
C219        C  0.41118579  0.17708017  0.36629531     0.81200
N220        N  0.43383924  0.18082671  0.35443556    -0.77100
C221        C  0.45608422  0.17867139  0.36744381     0.83700
N222        N  0.45552300  0.17289542  0.39254193    -0.77000
C223        C  0.43311850  0.16880667  0.40462666     0.83800
N224        N  0.41106328  0.17101451  0.39138144    -0.78700
O225        O  0.64724624  0.29234439  0.24833917    -0.77500
C226        C  0.62007301  0.22015020  0.27760154     0.83600
O227        O  0.71686901  0.25529336  0.29612946    -0.78600
O228        O  0.68929416  0.17785115  0.25567047    -0.80100
O229        O  0.67091207  0.23134893  0.18365525    -0.79900
O230        O  0.66374790  0.28956518  0.20959742    -0.78500
Zn231      Zn  0.65949855  0.26143977  0.26717399     1.55700
O232        O  0.65632002  0.19800637  0.20531518    -0.79900
Cd233      Cd  0.68417506  0.25589698  0.21149620     1.59700
Cd234      Cd  0.71520707  0.23666462  0.26156445     1.59600
O235        O  0.72186264  0.26426068  0.20347651    -0.79900
O236        O  0.68067966  0.24016346  0.24594510    -1.90400
Cd237      Cd  0.66462528  0.20583390  0.24293014     1.59900
O238        O  0.74288387  0.25188603  0.23805208    -0.79800
O239        O  0.63139856  0.20347861  0.26417966    -0.78500
C240        C  0.70043867  0.26884404  0.30762354     0.84000
C241        C  0.65026066  0.30115521  0.22601693     0.83700
O242        O  0.62887267  0.24255677  0.27971572    -0.77400
C243        C  0.66038545  0.20951660  0.18439148     0.84500
O244        O  0.67851321  0.27275331  0.29816525    -0.77500
C245        C  0.74252909  0.26168703  0.21589065     0.84600
C246        C  0.71177202  0.17808519  0.26476084     0.85000
O247        O  0.72392160  0.19880663  0.26796985    -0.80000
C248        C  0.45795182  0.81102419  0.37165628     0.81200
N249        N  0.45709960  0.81392898  0.39728831    -0.77100
C250        C  0.43470591  0.81219710  0.40993953     0.83700
N251        N  0.41310153  0.80710101  0.39685951    -0.77000
C252        C  0.41356601  0.80454891  0.37125396     0.83800
N253        N  0.43604059  0.80639279  0.35876049    -0.78700
C254        C  0.56376557  0.51236776  0.18776288     0.81200
N255        N  0.53829236  0.51243550  0.18390583    -0.77100
C256        C  0.52517187  0.49047838  0.18137927     0.83700
N257        N  0.53782267  0.46808666  0.18270156    -0.77000
C258        C  0.56333176  0.46743702  0.18655783     0.83800
N259        N  0.57621731  0.48973690  0.18921743    -0.78700
O260        O  0.67605296  0.70371808  0.30431646    -0.77500
C261        C  0.61985727  0.76158137  0.28332288     0.83600
O262        O  0.66349108  0.68911990  0.21667340    -0.78600
O263        O  0.65898950  0.78170033  0.21154071    -0.80100
O264        O  0.72426888  0.77823825  0.27610944    -0.79900
O265        O  0.71476991  0.72070453  0.30296175    -0.78500
Zn266      Zn  0.65711243  0.71778607  0.27385779     1.55700
O267        O  0.69033788  0.79996635  0.26307583    -0.79900
Cd268      Cd  0.71436434  0.74065583  0.26917923     1.59700
Cd269      Cd  0.68402204  0.72248711  0.21868840     1.59600
O270        O  0.74226153  0.72521193  0.24612382    -0.79900
O271        O  0.68001046  0.73813200  0.25302436    -1.90400
Cd272      Cd  0.66565036  0.77301590  0.24920426     1.59900
O273        O  0.72187633  0.71431495  0.21070859    -0.79800
O274        O  0.63215887  0.77681429  0.26913462    -0.78500
C275        C  0.64788394  0.67867793  0.23194021     0.84000
C276        C  0.69824067  0.70661536  0.31367939     0.83700
O277        O  0.62738590  0.73878861  0.28677582    -0.77400
C278        C  0.71255030  0.79917739  0.27266569     0.84500
O279        O  0.64315819  0.68808085  0.25373868    -0.77500
C280        C  0.74228781  0.71616479  0.22368666     0.84600
C281        C  0.66174466  0.76926839  0.19098450     0.85000
O282        O  0.67051809  0.74668808  0.19073032    -0.80000
O283        O  0.13717592  0.74529246  0.21526595    -0.77500
C284        C  0.16285118  0.80098190  0.26906607     0.83600
O285        O  0.22884579  0.75523791  0.20213702    -0.78600
O286        O  0.23108944  0.75905030  0.29294162    -0.80100
O287        O  0.16382788  0.69617020  0.28829546    -0.79900
O288        O  0.13734283  0.70657748  0.23199192    -0.78500
Zn289      Zn  0.16998811  0.76146567  0.22728914     1.55700
O290        O  0.17727597  0.73014759  0.30955425    -0.79900
Cd291      Cd  0.17169974  0.70547893  0.25090260     1.59700
Cd292      Cd  0.22433518  0.73378624  0.23448700     1.59600
O293        O  0.19342749  0.67719588  0.23457314    -0.79900
O294        O  0.18957950  0.73887371  0.24870000    -1.90400
Cd295      Cd  0.19331764  0.75385765  0.28320813     1.59900
O296        O  0.22997546  0.69633785  0.22483081    -0.79800
O297        O  0.17496129  0.78841545  0.28583259    -0.78500
C298        C  0.21348059  0.76934802  0.18987065     0.84000
C299        C  0.12658334  0.72380509  0.21883661     0.83700
O300        O  0.16018767  0.79269272  0.24654143    -0.77400
C301        C  0.16674829  0.70838816  0.30898915     0.84500
O302        O  0.19067638  0.77270635  0.19728561    -0.77500
C303        C  0.21590481  0.67666550  0.22558570     0.84600
C304        C  0.25202442  0.75422413  0.28177295     0.85000
O305        O  0.25252578  0.74434125  0.25972372    -0.80000
O306        O  0.21517797  0.28796933  0.25088188    -0.77500
C307        C  0.16175549  0.26935176  0.30855442     0.83600
O308        O  0.23182210  0.19986413  0.26752187    -0.78600
O309        O  0.13838481  0.19662074  0.27292157    -0.80100
O310        O  0.14177327  0.26057054  0.20608127    -0.79900
O311        O  0.20006197  0.28424341  0.21161428    -0.78500
Zn312      Zn  0.20373154  0.25759233  0.27044384     1.55700
O313        O  0.12031142  0.24891750  0.24053445    -0.79900
Cd314      Cd  0.17917839  0.25111056  0.21460779     1.59700
Cd315      Cd  0.19779300  0.20149437  0.24736808     1.59600
O316        O  0.19220570  0.22577472  0.18773160    -0.79900
O317        O  0.18232229  0.23619614  0.24948342    -1.90400
Cd318      Cd  0.14757004  0.23397942  0.26471850     1.59900
O319        O  0.20474856  0.19175283  0.20964878    -0.79800
O320        O  0.14544869  0.25512705  0.29772460    -0.78500
C321        C  0.24358708  0.21641994  0.28074085     0.84000
C322        C  0.21254141  0.29638788  0.22839821     0.83700
O323        O  0.18428788  0.27155730  0.30005825    -0.77400
C324        C  0.12100955  0.25876386  0.21842899     0.84500
O325        O  0.23484769  0.23887285  0.28330707    -0.77500
C326        C  0.20151128  0.20341715  0.18861832     0.84600
C327        C  0.15064533  0.17576801  0.27146705     0.85000
O328        O  0.17327441  0.17475561  0.26281280    -0.80000
C329        C  0.61274504  0.56149460  0.20817874    -0.27200
C330        C  0.59946896  0.58424325  0.20383401     0.06400
C331        C  0.57513364  0.58322313  0.19295806     0.26000
C332        C  0.56407260  0.55982306  0.18723295    -0.11700
C333        C  0.57699610  0.53689268  0.19217005    -0.25600
C334        C  0.60169819  0.53801001  0.20246319     0.36900
C335        C  0.61129561  0.60886990  0.21053438     0.06400
F336        F  0.56217005  0.60485569  0.18751250    -0.19400
H337        H  0.54519982  0.55974120  0.17903085     0.16300
F338        F  0.61497796  0.51654000  0.20772948    -0.23100
H339        H  0.63156374  0.56191777  0.21651114     0.18100
C340        C  0.59872562  0.62643190  0.22626642     0.26100
C341        C  0.61069361  0.64913586  0.23317676    -0.11600
C342        C  0.63518180  0.65485616  0.22424015    -0.25700
C343        C  0.64756781  0.63739909  0.20826188     0.37000
C344        C  0.63575899  0.61458398  0.20166480    -0.27300
F345        F  0.57522201  0.62132187  0.23556711    -0.19400
H346        H  0.60078957  0.66229470  0.24547110     0.16300
F347        F  0.67145182  0.64195701  0.19968958    -0.23100
H348        H  0.64574455  0.60130242  0.18956870     0.18100
C349        C  0.36336056  0.79741863  0.32008290    -0.27200
C350        C  0.34574034  0.78158193  0.33231654     0.06400
C351        C  0.35072074  0.77316917  0.35712005     0.26000
C352        C  0.37268857  0.78101826  0.36969260    -0.11700
C353        C  0.39025529  0.79706528  0.35763270    -0.25600
C354        C  0.38550691  0.80514786  0.33261535     0.36900
C355        C  0.32189743  0.77435645  0.31942138     0.06400
F356        F  0.33453634  0.75698966  0.36899970    -0.19400
H357        H  0.37618762  0.77416259  0.38877308     0.16300
F358        F  0.40182102  0.82109263  0.32060296    -0.23100
H359        H  0.35970143  0.80414664  0.30098886     0.18100
C360        C  0.29832165  0.78042650  0.33026735     0.26100
C361        C  0.27579414  0.77362324  0.31802666    -0.11600
C362        C  0.27628712  0.76062070  0.29470921    -0.25700
C363        C  0.30006532  0.75441792  0.28395802     0.37000
C364        C  0.32260434  0.76141043  0.29620354    -0.27300
F365        F  0.29710231  0.79350222  0.35243246    -0.19400
H366        H  0.25792045  0.77881407  0.32676581     0.16300
F367        F  0.30168049  0.74155064  0.26170548    -0.23100
H368        H  0.34067693  0.75650163  0.28768553     0.18100
C369        C  0.50742774  0.80329018  0.31984289    -0.27200
C370        C  0.52882251  0.79640770  0.33416298     0.06400
C371        C  0.52758249  0.79718855  0.36074312     0.26000
C372        C  0.50483010  0.80352182  0.37280976    -0.11700
C373        C  0.48280365  0.80885104  0.35857055    -0.25600
C374        C  0.48453684  0.80938046  0.33186120     0.36900
C375        C  0.55207772  0.78754888  0.32127158     0.06400
F376        F  0.54828078  0.79137196  0.37501560    -0.19400
H377        H  0.50424369  0.80310016  0.39333735     0.16300
F378        F  0.46404802  0.81518379  0.31728730    -0.23100
H379        H  0.50823295  0.80306360  0.29931158     0.18100
C380        C  0.56071566  0.76252533  0.32457930     0.26100
C381        C  0.58262933  0.75417159  0.31211643    -0.11600
C382        C  0.59639796  0.77065136  0.29619012    -0.25700
C383        C  0.58753544  0.79579246  0.29295431     0.37000
C384        C  0.56549621  0.80399479  0.30527550    -0.27300
F385        F  0.54764194  0.74603335  0.33948135    -0.19400
H386        H  0.58878993  0.73476044  0.31496602     0.16300
F387        F  0.60009928  0.81260533  0.27799507    -0.23100
H388        H  0.55899949  0.82332362  0.30254024     0.18100
C389        C  0.63426000  0.36313957  0.19259611    -0.27200
C390        C  0.61365050  0.37180777  0.20704062     0.06400
C391        C  0.60504612  0.35714403  0.22759669     0.26000
C392        C  0.61709227  0.33427100  0.23367440    -0.11700
C393        C  0.63770098  0.32541725  0.21916650    -0.25600
C394        C  0.64613998  0.34010268  0.19844833     0.36900
C395        C  0.60115920  0.39612059  0.20057885     0.06400
F396        F  0.58531851  0.36520381  0.24210119    -0.19400
H397        H  0.61015779  0.32339800  0.24969129     0.16300
F398        F  0.66616567  0.33252994  0.18411794    -0.23100
H399        H  0.64104218  0.37418852  0.17663503     0.18100
C400        C  0.61501228  0.41890674  0.20012453     0.26100
C401        C  0.60275652  0.44192107  0.19495520    -0.11600
C402        C  0.57647553  0.44263678  0.18997889    -0.25700
C403        C  0.56284982  0.41948960  0.18962890     0.37000
C404        C  0.57512468  0.39659479  0.19506061    -0.27300
F405        F  0.64022875  0.41900446  0.20558024    -0.19400
H406        H  0.61384078  0.45923323  0.19531578     0.16300
F407        F  0.53758390  0.41877268  0.18444836    -0.23100
H408        H  0.56425610  0.37912411  0.19499456     0.18100
C409        C  0.50736054  0.18369690  0.31704237    -0.27200
C410        C  0.52772745  0.19362263  0.33107219     0.06400
C411        C  0.52460551  0.19824794  0.35713049     0.26000
C412        C  0.50137890  0.19297119  0.36890403    -0.11700
C413        C  0.48073523  0.18349857  0.35478141    -0.25600
C414        C  0.48398607  0.17884337  0.32868431     0.36900
C415        C  0.55176186  0.20007207  0.31808895     0.06400
F416        F  0.54405815  0.20771735  0.37118648    -0.19400
H417        H  0.49940166  0.19675356  0.38899178     0.16300
F418        F  0.46474441  0.16924003  0.31446103    -0.23100
H419        H  0.50946078  0.18014136  0.29692919     0.18100
C420        C  0.56601566  0.18135883  0.30555819     0.26100
C421        C  0.58813300  0.18796774  0.29236998    -0.11600
C422        C  0.59636335  0.21338986  0.29136153    -0.25700
C423        C  0.58190537  0.23208959  0.30402531     0.37000
C424        C  0.55994287  0.22537722  0.31732365    -0.27300
F425        F  0.55871215  0.15664667  0.30639372    -0.19400
H426        H  0.59885635  0.17314047  0.28304994     0.16300
F427        F  0.58864495  0.25696973  0.30333280    -0.23100
H428        H  0.54899029  0.24004413  0.32665210     0.18100
C429        C  0.29927497  0.17820925  0.30722446    -0.27200
C430        C  0.31477730  0.19748086  0.31708425     0.06400
C431        C  0.30673656  0.22283763  0.31528118     0.26000
C432        C  0.28354515  0.22879123  0.30367163    -0.11700
C433        C  0.26801604  0.20959569  0.29335885    -0.25600
C434        C  0.27619347  0.18412099  0.29531478     0.36900
C435        C  0.33943406  0.19112994  0.32904735     0.06400
F436        F  0.32119803  0.24181042  0.32507229    -0.19400
H437        H  0.27786389  0.24852738  0.30257829     0.16300
F438        F  0.26189023  0.16483821  0.28593607    -0.23100
H439        H  0.30523334  0.15855925  0.30850814     0.18100
C440        C  0.34039651  0.17760137  0.35198494     0.26100
C441        C  0.36378221  0.17271108  0.36369166    -0.11600
C442        C  0.38670975  0.18095464  0.35261221    -0.25700
C443        C  0.38563037  0.19388845  0.32915232     0.37000
C444        C  0.36217394  0.19906281  0.31768813    -0.27300
F445        F  0.31865868  0.16982666  0.36345788    -0.19400
H446        H  0.36386915  0.16263934  0.38161866     0.16300
F447        F  0.40707375  0.20222841  0.31753670    -0.23100
H448        H  0.36171290  0.20940433  0.29991125     0.18100
C449        C  0.74959237  0.63501183  0.59118999    -0.27200
C450        C  0.73124318  0.65433817  0.59266951     0.06400
C451        C  0.71824655  0.66166499  0.57050301     0.26000
C452        C  0.72332104  0.64961052  0.54742607    -0.11700
C453        C  0.74124758  0.62986426  0.54602356    -0.25600
C454        C  0.75456008  0.62281942  0.56812880     0.36900
C455        C  0.72553563  0.66657672  0.61737044     0.06400
F456        F  0.69995386  0.67983305  0.57132622    -0.19400
H457        H  0.71266686  0.65526274  0.53076928     0.16300
F458        F  0.77265745  0.60445717  0.56741430    -0.23100
H459        H  0.76013058  0.62940340  0.60793183     0.18100
C460        C  0.71952535  0.65187259  0.63883871     0.26100
C461        C  0.71377913  0.66361597  0.66194536    -0.11600
C462        C  0.71368018  0.69023552  0.66404932    -0.25700
C463        C  0.71989414  0.70492712  0.64254922     0.37000
C464        C  0.72579516  0.69315038  0.61951218    -0.27300
F465        F  0.71837942  0.62616398  0.63726053    -0.19400
H466        H  0.70886023  0.65186003  0.67806486     0.16300
F467        F  0.72068440  0.73066954  0.64381107    -0.23100
H468        H  0.73071044  0.70480738  0.60331768     0.18100
C469        C  0.69772232  0.66044153  0.36923582    -0.27200
C470        C  0.71902759  0.66848879  0.38312543     0.06400
C471        C  0.73357167  0.68889350  0.37392927     0.26000
C472        C  0.72667910  0.70114166  0.35139256    -0.11700
C473        C  0.70514155  0.69335470  0.33758412    -0.25600
C474        C  0.69073739  0.67272435  0.34673884     0.36900
C475        C  0.72599499  0.65526932  0.40698835     0.06400
F476        F  0.75479695  0.69660599  0.38639809    -0.19400
H477        H  0.73823743  0.71681632  0.34478387     0.16300
F478        F  0.67017143  0.66405590  0.33380747    -0.23100
H479        H  0.68633814  0.64467990  0.37595920     0.18100
C480        C  0.72932666  0.66879370  0.42973285     0.26100
C481        C  0.73511021  0.65592277  0.45224036    -0.11600
C482        C  0.73769218  0.62930927  0.45258679    -0.25700
C483        C  0.73444375  0.61583695  0.42965784     0.37000
C484        C  0.72860397  0.62875623  0.40720275    -0.27300
F485        F  0.72615434  0.69437341  0.43038835    -0.19400
H486        H  0.73738294  0.66687846  0.46947187     0.16300
F487        F  0.73630480  0.59014418  0.42884231    -0.23100
H488        H  0.72607438  0.61800096  0.38986797     0.18100
C489        C  0.41272379  0.81371698  0.53312114    -0.27200
C490        C  0.43517449  0.81006976  0.51933143     0.06400
C491        C  0.45790216  0.80503948  0.53240008     0.26000
C492        C  0.45798130  0.80326752  0.55886506    -0.11700
C493        C  0.43540292  0.80643875  0.57279946    -0.25600
C494        C  0.41273587  0.81201032  0.55955324     0.36900
C495        C  0.43462338  0.81118348  0.49132091     0.06400
F496        F  0.47984548  0.80092650  0.51951886    -0.19400
H497        H  0.47569201  0.79884031  0.56836805     0.16300
F498        F  0.39049733  0.81589392  0.57194766    -0.23100
H499        H  0.39509946  0.81795329  0.52334816     0.18100
C500        C  0.41758724  0.79596021  0.47751955     0.26100
C501        C  0.41731827  0.79693936  0.45105826    -0.11600
C502        C  0.43420593  0.81285485  0.43790458    -0.25700
C503        C  0.45104674  0.82831559  0.45171193     0.37000
C504        C  0.45117428  0.82747930  0.47823346    -0.27300
F505        F  0.40183247  0.77949335  0.48959078    -0.19400
H506        H  0.40438684  0.78464553  0.44081274     0.16300
F507        F  0.46703753  0.84451998  0.43962023    -0.23100
H508        H  0.46413531  0.83962972  0.48860342     0.18100
C509        C  0.52711482  0.80055810  0.65793545    -0.27200
C510        C  0.52947795  0.78062079  0.67554978     0.06400
C511        C  0.50781971  0.76608259  0.68154801     0.26000
C512        C  0.48440806  0.77147212  0.67015780    -0.11700
C513        C  0.48225025  0.79099744  0.65214588    -0.25600
C514        C  0.50381910  0.80557162  0.64613241     0.36900
C515        C  0.55448122  0.77499376  0.68749591     0.06400
F516        F  0.50946531  0.74602448  0.69767511    -0.19400
H517        H  0.46811862  0.75977809  0.67476701     0.16300
F518        F  0.50228804  0.82493247  0.62915747    -0.23100
H519        H  0.54333604  0.81234206  0.65334655     0.18100
C520        C  0.57672397  0.77320667  0.67279461     0.26100
C521        C  0.59998342  0.76727507  0.68423164    -0.11600
C522        C  0.60164029  0.76283149  0.71052923    -0.25700
C523        C  0.57937654  0.76495650  0.72526213     0.37000
C524        C  0.55617436  0.77107860  0.71381809    -0.27300
F525        F  0.57589214  0.77633305  0.64722635    -0.19400
H526        H  0.61666289  0.76572232  0.67231725     0.16300
F527        F  0.57985484  0.76112234  0.75073872    -0.23100
H528        H  0.53943706  0.77282265  0.72562591     0.18100
C529        C  0.58195955  0.58339830  0.81495848    -0.27200
C530        C  0.60158246  0.58388066  0.79695338     0.06400
C531        C  0.60805514  0.56141691  0.78409848     0.26000
C532        C  0.59507566  0.53887971  0.78927334    -0.11700
C533        C  0.57525415  0.53840905  0.80711345    -0.25600
C534        C  0.56882442  0.56090204  0.81999898     0.36900
C535        C  0.61531156  0.60779441  0.79173842     0.06400
F536        F  0.62645599  0.56142503  0.76604920    -0.19400
H537        H  0.60020835  0.52187251  0.77892894     0.16300
F538        F  0.55032656  0.56104281  0.83792936    -0.23100
H539        H  0.57698819  0.60043964  0.82532375     0.18100
C540        C  0.60199990  0.63011081  0.78553878     0.26100
C541        C  0.61524759  0.65244218  0.78012618    -0.11600
C542        C  0.64193389  0.65278469  0.78050639    -0.25700
C543        C  0.65521815  0.63056644  0.78715260     0.37000
C544        C  0.64195697  0.60831230  0.79277853    -0.27300
F545        F  0.57625870  0.63006645  0.78376274    -0.19400
H546        H  0.60464343  0.66927517  0.77483589     0.16300
F547        F  0.68098440  0.63042284  0.78851275    -0.23100
H548        H  0.65250330  0.59141954  0.79797989     0.18100
C549        C  0.31478682  0.75850998  0.70600534    -0.27200
C550        C  0.31712023  0.78018081  0.69067625     0.06400
C551        C  0.29560282  0.79550271  0.68638881     0.26000
C552        C  0.27213984  0.78892278  0.69698382    -0.11700
C553        C  0.26982976  0.76718208  0.71226905    -0.25600
C554        C  0.29144935  0.75207342  0.71679934     0.36900
C555        C  0.34161438  0.78562773  0.67795386     0.06400
F556        F  0.29733251  0.81694765  0.67216440    -0.19400
H557        H  0.25582205  0.80095782  0.69344298     0.16300
F558        F  0.28985914  0.73050376  0.73085308    -0.23100
H559        H  0.33094346  0.74613891  0.70908366     0.18100
C560        C  0.36465708  0.78562462  0.69151173     0.26100
C561        C  0.38773271  0.78912464  0.67879135    -0.11600
C562        C  0.38830835  0.79264066  0.65231151    -0.25700
C563        C  0.36503739  0.79294113  0.63890132     0.37000
C564        C  0.34208866  0.78945612  0.65164854    -0.27300
F565        F  0.36484758  0.78239459  0.71707773    -0.19400
H566        H  0.40515846  0.78894558  0.68972959     0.16300
F567        F  0.36420209  0.79599066  0.61335159    -0.23100
H568        H  0.32461698  0.78906510  0.64077026     0.18100
C569        C  0.15187851  0.69999902  0.37879734    -0.27200
C570        C  0.14466019  0.67438939  0.37987735     0.06400
C571        C  0.14274168  0.66049317  0.35712497     0.26000
C572        C  0.14930096  0.67181549  0.33400480    -0.11700
C573        C  0.15795502  0.69707957  0.33317653    -0.25600
C574        C  0.15865368  0.71122983  0.35586581     0.36900
C575        C  0.14022345  0.66240302  0.40495639     0.06400
F576        F  0.13564785  0.63570697  0.35727657    -0.19400
H577        H  0.14828527  0.66053984  0.31685593     0.16300
F578        F  0.16616959  0.73589406  0.35614920    -0.23100
H579        H  0.15264385  0.71133997  0.39591644     0.18100
C580        C  0.15734223  0.66661223  0.42513445     0.26100
C581        C  0.15276860  0.65607682  0.44899982    -0.11600
C582        C  0.13163924  0.64044901  0.45291278    -0.25700
C583        C  0.11482832  0.63566022  0.43274940     0.37000
C584        C  0.11887520  0.64692382  0.40906365    -0.27300
F585        F  0.17901490  0.68013630  0.42155309    -0.19400
H586        H  0.16629997  0.65926159  0.46417617     0.16300
F587        F  0.09439541  0.62027886  0.43606988    -0.23100
H588        H  0.10528201  0.64361540  0.39398852     0.18100
C589        C  0.14083312  0.64186488  0.59125531    -0.27200
C590        C  0.13327819  0.66734052  0.59308733     0.06400
C591        C  0.12335509  0.67957163  0.57148717     0.26000
C592        C  0.12153458  0.66652096  0.54837050    -0.11700
C593        C  0.12939246  0.64104949  0.54650946    -0.25600
C594        C  0.13892463  0.62880215  0.56831973     0.36900
C595        C  0.13758159  0.68111987  0.61723960     0.06400
F596        F  0.11524178  0.70400942  0.57280627    -0.19400
H597        H  0.11388724  0.67628970  0.53197087     0.16300
F598        F  0.14745266  0.60448429  0.56735731    -0.23100
H599        H  0.14897804  0.63224141  0.60750421     0.18100
C600        C  0.12931533  0.67081170  0.64041357     0.26100
C601        C  0.13664824  0.68190569  0.66337487    -0.11600
C602        C  0.15235285  0.70355170  0.66377541    -0.25700
C603        C  0.15971197  0.71447609  0.64044042     0.37000
C604        C  0.15236054  0.70330444  0.61746763    -0.27300
F605        F  0.11439921  0.64977284  0.64084555    -0.19400
H606        H  0.13027546  0.67326073  0.68088806     0.16300
F607        F  0.17480821  0.73535799  0.63967159    -0.23100
H608        H  0.15914646  0.71138201  0.59983565     0.18100
C609        C  0.61028599  0.41999797  0.79498887    -0.27200
C610        C  0.59660198  0.39744277  0.79847638     0.06400
C611        C  0.57153101  0.39861329  0.80743282     0.26000
C612        C  0.56016473  0.42210018  0.81226713    -0.11700
C613        C  0.57353495  0.44490759  0.80817543    -0.25600
C614        C  0.59894225  0.44354604  0.79963441     0.36900
C615        C  0.60840442  0.37284943  0.79197083     0.06400
F616        F  0.55809619  0.37700946  0.81163678    -0.19400
H617        H  0.54074349  0.42234987  0.81902146     0.16300
F618        F  0.61282427  0.46482877  0.79526787    -0.23100
H619        H  0.62965008  0.41936424  0.78805376     0.18100
C620        C  0.59785980  0.35745329  0.77293238     0.26100
C621        C  0.60969532  0.33470171  0.76612609    -0.11600
C622        C  0.63206243  0.32673325  0.77840583    -0.25700
C623        C  0.64244915  0.34212199  0.79768646     0.37000
C624        C  0.63078920  0.36508652  0.80418460    -0.27300
F625        F  0.57647147  0.36476677  0.76047488    -0.19400
H626        H  0.60125144  0.32322901  0.75129728     0.16300
F627        F  0.66418147  0.33535029  0.80984208    -0.23100
H628        H  0.63919442  0.37684179  0.81881934     0.18100
C629        C  0.45001953  0.14791320  0.52839500    -0.27200
C630        C  0.43026704  0.15840379  0.51378917     0.06400
C631        C  0.40971735  0.17008936  0.52622062     0.26000
C632        C  0.40929648  0.17168300  0.55263320    -0.11700
C633        C  0.42948170  0.16205341  0.56722569    -0.25600
C634        C  0.44981133  0.14988017  0.55485101     0.36900
C635        C  0.43178729  0.15849589  0.48568706     0.06400
F636        F  0.39061490  0.18114324  0.51284384    -0.19400
H637        H  0.39351596  0.18133697  0.56159931     0.16300
F638        F  0.46946422  0.13982958  0.56821446    -0.23100
H639        H  0.46580308  0.13841929  0.51927410     0.18100
C640        C  0.45403238  0.16661189  0.47333991     0.26100
C641        C  0.45451867  0.16903107  0.44696405    -0.11600
C642        C  0.43280339  0.16371652  0.43231589    -0.25700
C643        C  0.41082320  0.15467114  0.44463071     0.37000
C644        C  0.41046411  0.15196965  0.47102023    -0.27300
F645        F  0.47490836  0.17356640  0.48680906    -0.19400
H646        H  0.47171142  0.17603628  0.43813201     0.16300
F647        F  0.38956957  0.14860633  0.43133258    -0.23100
H648        H  0.39331120  0.14513937  0.48007164     0.18100
C649        C  0.55550513  0.21775430  0.67829694    -0.27200
C650        C  0.54500233  0.19434035  0.68528237     0.06400
C651        C  0.55667349  0.17966533  0.70414509     0.26000
C652        C  0.57881209  0.18835455  0.71584342    -0.11700
C653        C  0.58950228  0.21191430  0.70901090    -0.25600
C654        C  0.57751577  0.22663675  0.69011489     0.36900
C655        C  0.52154311  0.18569182  0.67299885     0.06400
F656        F  0.54681425  0.15684160  0.71098566    -0.19400
H657        H  0.58756839  0.17658675  0.73026762     0.16300
F658        F  0.58713111  0.24940077  0.68275074    -0.23100
H659        H  0.54649857  0.22921736  0.66376782     0.18100
C660        C  0.49834511  0.18710058  0.68589721     0.26100
C661        C  0.47574502  0.18143628  0.67323153    -0.11600
C662        C  0.47596965  0.17421956  0.64749199    -0.25700
C663        C  0.49960520  0.17160284  0.63506525     0.37000
C664        C  0.52212593  0.17754149  0.64775447    -0.27300
F665        F  0.49750624  0.19507727  0.71038047    -0.19400
H666        H  0.45802605  0.18349199  0.68344071     0.16300
F667        F  0.50111742  0.16404895  0.61049520    -0.23100
H668        H  0.54004944  0.17625817  0.63773989     0.18100
C669        C  0.77503259  0.45379434  0.51394711    -0.27200
C670        C  0.75999849  0.46894085  0.49786996     0.06400
C671        C  0.74259366  0.45716784  0.48138023     0.26000
C672        C  0.74019939  0.43078136  0.48113584    -0.11700
C673        C  0.75474859  0.41568116  0.49759870    -0.25600
C674        C  0.77239437  0.42731427  0.51389857     0.36900
C675        C  0.76162691  0.49700493  0.49884907     0.06400
F676        F  0.72709681  0.47125084  0.46629310    -0.19400
H677        H  0.72630611  0.42215699  0.46863861     0.16300
F678        F  0.78731200  0.41307323  0.52940123    -0.23100
H679        H  0.78872633  0.46251379  0.52658079     0.18100
C680        C  0.75772741  0.51007641  0.52174351     0.26100
C681        C  0.75623800  0.53660472  0.52190715    -0.11600
C682        C  0.75858205  0.55062271  0.49925476    -0.25700
C683        C  0.76389378  0.53744540  0.47655498     0.37000
C684        C  0.76528664  0.51093682  0.47644412    -0.27300
F685        F  0.75386828  0.49714818  0.54370896    -0.19400
H686        H  0.75223334  0.54606409  0.53969492     0.16300
F687        F  0.76735660  0.54999508  0.45431501    -0.23100
H688        H  0.76873471  0.50118381  0.45868413     0.18100
C689        C  0.69559164  0.30624193  0.36905107    -0.27200
C690        C  0.71925523  0.30131875  0.38022465     0.06400
C691        C  0.73665380  0.28551907  0.36769205     0.26000
C692        C  0.73049190  0.27508764  0.34406458    -0.11700
C693        C  0.70680207  0.28010719  0.33264580    -0.25600
C694        C  0.68929661  0.29575013  0.34556739     0.36900
C695        C  0.72583169  0.31355674  0.40453128     0.06400
F696        F  0.75984768  0.28079150  0.37796720    -0.19400
H697        H  0.74434107  0.26313833  0.33469114     0.16300
F698        F  0.66610482  0.30111858  0.33559902    -0.23100
H699        H  0.68194669  0.31831899  0.37858608     0.18100
C700        C  0.72591214  0.34012084  0.40640775     0.26100
C701        C  0.73132768  0.35180625  0.42951234    -0.11600
C702        C  0.73645527  0.33725420  0.45133109    -0.25700
C703        C  0.73655058  0.31053836  0.44936156     0.37000
C704        C  0.73141403  0.29885506  0.42604881    -0.27300
F705        F  0.72088008  0.35478149  0.38578909    -0.19400
H706        H  0.73103905  0.37234997  0.43035664     0.16300
F707        F  0.74176910  0.29568730  0.46978599    -0.23100
H708        H  0.73136545  0.27832026  0.42485366     0.18100
C709        C  0.72416116  0.28158796  0.62437053    -0.27200
C710        C  0.71254496  0.30409972  0.61619781     0.06400
C711        C  0.69377628  0.31543611  0.63137864     0.26000
C712        C  0.68698342  0.30446393  0.65460278    -0.11700
C713        C  0.69909645  0.28225818  0.66319408    -0.25600
C714        C  0.71769341  0.27080430  0.64772562     0.36900
C715        C  0.72023909  0.31568979  0.59186837     0.06400
F716        F  0.68187101  0.33695711  0.62358973    -0.19400
H717        H  0.67254948  0.31356593  0.66606108     0.16300
F718        F  0.72936220  0.24895187  0.65493369    -0.23100
H719        H  0.73853085  0.27255728  0.61276477     0.18100
C720        C  0.73164242  0.33975591  0.59131424     0.26100
C721        C  0.73870405  0.35067946  0.56818718    -0.11600
C722        C  0.73440699  0.33787232  0.54511814    -0.25700
C723        C  0.72322699  0.31347982  0.54587440     0.37000
C724        C  0.71640372  0.30253373  0.56908496    -0.27300
F725        F  0.73620653  0.35255876  0.61320271    -0.19400
H726        H  0.74736475  0.36932083  0.56840262     0.16300
F727        F  0.71825362  0.30031995  0.52429621    -0.23100
H728        H  0.70766236  0.28391427  0.56927179     0.18100
C729        C  0.35685265  0.18613894  0.68337187    -0.27200
C730        C  0.33584778  0.19317912  0.66856454     0.06400
C731        C  0.33820848  0.19427526  0.64208839     0.26000
C732        C  0.36129538  0.18823136  0.63057803    -0.11700
C733        C  0.38255239  0.18131320  0.64528941    -0.25600
C734        C  0.38011533  0.18041345  0.67192675     0.36900
C735        C  0.31155105  0.19958402  0.68085329     0.06400
F736        F  0.31806165  0.20084069  0.62735587    -0.19400
H737        H  0.36254495  0.18923780  0.61010207     0.16300
F738        F  0.39999213  0.17372739  0.68695880    -0.23100
H739        H  0.35525171  0.18532181  0.70383634     0.18100
C740        C  0.29801375  0.18117171  0.69451867     0.26100
C741        C  0.27499175  0.18744678  0.70612918    -0.11600
C742        C  0.26515775  0.21225988  0.70443902    -0.25700
C743        C  0.27896257  0.23070835  0.69068538     0.37000
C744        C  0.30186103  0.22428523  0.67893524    -0.27300
F745        F  0.30685163  0.15700352  0.69620436    -0.19400
H746        H  0.26487156  0.17282149  0.71641650     0.16300
F747        F  0.27052545  0.25498856  0.68855258    -0.23100
H748        H  0.31220876  0.23866752  0.66850609     0.18100
C749        C  0.13012491  0.46526853  0.52157267    -0.27200
C750        C  0.12430118  0.47903678  0.49950178     0.06400
C751        C  0.11874499  0.46575819  0.47701428     0.26000
C752        C  0.11952275  0.43927535  0.47659545    -0.11700
C753        C  0.12555479  0.42542530  0.49860908    -0.25600
C754        C  0.13057304  0.43875860  0.52128385     0.36900
C755        C  0.12473425  0.50716276  0.49982762     0.06400
F756        F  0.11223045  0.47835558  0.45546957    -0.19400
H757        H  0.11529584  0.42962252  0.45895348     0.16300
F758        F  0.13661088  0.42638263  0.54308540    -0.23100
H759        H  0.13488532  0.47506003  0.53900203     0.18100
C760        C  0.11290799  0.52095871  0.51940934     0.26100
C761        C  0.11355506  0.54747947  0.51931764    -0.11600
C762        C  0.12560355  0.56067024  0.49954801    -0.25700
C763        C  0.13757539  0.54688456  0.48007395     0.37000
C764        C  0.13730997  0.52041474  0.48041395    -0.27300
F765        F  0.10015456  0.50888133  0.53826794    -0.19400
H766        H  0.10419733  0.55772474  0.53447103     0.16300
F767        F  0.15018510  0.55890172  0.46106842    -0.23100
H768        H  0.14718872  0.51023618  0.46555422     0.18100
C769        C  0.12840881  0.28995835  0.36894909    -0.27200
C770        C  0.14256742  0.31151683  0.37561161     0.06400
C771        C  0.16226738  0.31973731  0.35967422     0.26000
C772        C  0.16824942  0.30599049  0.33782724    -0.11700
C773        C  0.15446591  0.28403748  0.33132818    -0.25600
C774        C  0.13407056  0.27642748  0.34685342     0.36900
C775        C  0.13832731  0.32383263  0.40036701     0.06400
F776        F  0.17644401  0.34037808  0.36583889    -0.19400
H777        H  0.18382785  0.31244909  0.32606457     0.16300
F778        F  0.12022869  0.25540429  0.34128333    -0.23100
H779        H  0.11322168  0.28338078  0.38115164     0.18100
C780        C  0.13127762  0.34947120  0.40209202     0.26100
C781        C  0.12852444  0.36089559  0.42589163    -0.11600
C782        C  0.13293500  0.34699052  0.44836004    -0.25700
C783        C  0.13992232  0.32120562  0.44637518     0.37000
C784        C  0.14239223  0.30982118  0.42260511    -0.27300
F785        F  0.12689709  0.36335918  0.38080173    -0.19400
H786        H  0.12303388  0.38070007  0.42666745     0.16300
F787        F  0.14509069  0.30700647  0.46724281    -0.23100
H788        H  0.14812355  0.29008870  0.42150846     0.18100
C789        C  0.16521679  0.31255997  0.62827521    -0.27200
C790        C  0.14513099  0.30397516  0.61303310     0.06400
C791        C  0.13049867  0.28322083  0.62121006     0.26000
C792        C  0.13565203  0.27162034  0.64459334    -0.11700
C793        C  0.15571396  0.28028612  0.66001398    -0.25600
C794        C  0.17060013  0.30085761  0.65144679     0.36900
C795        C  0.13955147  0.31715365  0.58885630     0.06400
F796        F  0.11087119  0.27458393  0.60688120    -0.19400
H797        H  0.12400605  0.25576194  0.65056530     0.16300
F798        F  0.19014122  0.31004628  0.66555851    -0.23100
H799        H  0.17682872  0.32839747  0.62214398     0.18100
C800        C  0.13512724  0.34343120  0.58862202     0.26100
C801        C  0.13163737  0.35622409  0.56569341    -0.11600
C802        C  0.13261253  0.34316790  0.54240031    -0.25700
C803        C  0.13636487  0.31661293  0.54275432     0.37000
C804        C  0.13975110  0.30380773  0.56582562    -0.27300
F805        F  0.13417889  0.35676715  0.61064492    -0.19400
H806        H  0.12851797  0.37652980  0.56629239     0.16300
F807        F  0.13727223  0.30296728  0.52094953    -0.23100
H808        H  0.14321998  0.28353762  0.56568141     0.18100
C809        C  0.40114032  0.50862019  0.17200850    -0.27200
C810        C  0.41563334  0.48864501  0.18210621     0.06400
C811        C  0.40328863  0.46856608  0.19463294     0.26000
C812        C  0.37684675  0.46825365  0.19639817    -0.11700
C813        C  0.36227093  0.48815649  0.18615720    -0.25600
C814        C  0.37471129  0.50850768  0.17405864     0.36900
C815        C  0.44362346  0.48943312  0.18032824     0.06400
F816        F  0.41680029  0.44968813  0.20590296    -0.19400
H817        H  0.36780711  0.45261192  0.20623180     0.16300
F818        F  0.36143014  0.52807039  0.16374962    -0.23100
H819        H  0.41033586  0.52428987  0.16235822     0.18100
C820        C  0.45750861  0.46838820  0.17157904     0.26100
C821        C  0.48403000  0.46906465  0.17139346    -0.11600
C822        C  0.49713839  0.49082376  0.17959962    -0.25700
C823        C  0.48309661  0.51224844  0.18740036     0.37000
C824        C  0.45662743  0.51143010  0.18778829    -0.27300
F825        F  0.44544358  0.44727078  0.16302222    -0.19400
H826        H  0.49431008  0.45246503  0.16494473     0.16300
F827        F  0.49478276  0.53368001  0.19569120    -0.23100
H828        H  0.44624741  0.52783227  0.19459389     0.18100
C829        C  0.28416696  0.39311858  0.19893017    -0.27200
C830        C  0.25827117  0.39273082  0.20488641     0.06400
C831        C  0.24493452  0.41565453  0.20731981     0.26000
C832        C  0.25746284  0.43875178  0.20379682    -0.11700
C833        C  0.28357882  0.43935522  0.19809423    -0.25600
C834        C  0.29685168  0.41615761  0.19570465     0.36900
C835        C  0.24574313  0.36837292  0.21024183     0.06400
F836        F  0.21978511  0.41564416  0.21303869    -0.19400
H837        H  0.24669781  0.45616175  0.20578762     0.16300
F838        F  0.32206433  0.41552501  0.19032666    -0.23100
H839        H  0.29469254  0.37550673  0.19733336     0.18100
C840        C  0.24330304  0.34970172  0.19138304     0.26100
C841        C  0.23212166  0.32631848  0.19720277    -0.11600
C842        C  0.22383176  0.32117042  0.22201761    -0.25700
C843        C  0.22624539  0.34003920  0.24078838     0.37000
C844        C  0.23698124  0.36347197  0.23482882    -0.27300
F845        F  0.25158589  0.35418836  0.16740185    -0.19400
H846        H  0.23036262  0.31208716  0.18247605     0.16300
F847        F  0.21781085  0.33604222  0.26480939    -0.23100
H848        H  0.23883556  0.37773145  0.24952583     0.18100
C849        C  0.27690148  0.57714754  0.17882582    -0.27200
C850        C  0.25641641  0.57982766  0.19559683     0.06400
C851        C  0.24710512  0.55842145  0.20851862     0.26000
C852        C  0.25896664  0.53489210  0.20555586    -0.11700
C853        C  0.28037914  0.53248733  0.18986770    -0.25600
C854        C  0.28883273  0.55366695  0.17592722     0.36900
C855        C  0.24622153  0.60526471  0.20121704     0.06400
F856        F  0.22761306  0.56062097  0.22523342    -0.19400
H857        H  0.25220095  0.51886692  0.21652735     0.16300
F858        F  0.30878318  0.55176109  0.15972927    -0.23100
H859        H  0.28403537  0.59342677  0.16847408     0.18100
C860        C  0.26236449  0.62429035  0.21066538     0.26100
C861        C  0.25241648  0.64771887  0.21794994    -0.11600
C862        C  0.22621634  0.65244182  0.21616128    -0.25700
C863        C  0.21016733  0.63364363  0.20598229     0.37000
C864        C  0.22016428  0.61021136  0.19859704    -0.27300
F865        F  0.28755575  0.61977018  0.21400677    -0.19400
H866        H  0.26510317  0.66187251  0.22580925     0.16300
F867        F  0.18490779  0.63797021  0.20298814    -0.23100
H868        H  0.20756366  0.59580320  0.19107405     0.18100
C869        C  0.45651901  0.47181702  0.83870178    -0.27200
C870        C  0.44199506  0.49255434  0.83020540     0.06400
C871        C  0.45468907  0.51441481  0.82143009     0.26000
C872        C  0.48122353  0.51483120  0.81994689    -0.11700
C873        C  0.49565421  0.49343663  0.82688901    -0.25600
C874        C  0.48302176  0.47211154  0.83694831     0.36900
C875        C  0.41379103  0.49066384  0.82915378     0.06400
F876        F  0.44148758  0.53485416  0.81285231    -0.19400
H877        H  0.49037410  0.53154024  0.81219757     0.16300
F878        F  0.49618003  0.45137498  0.84484579    -0.23100
H879        H  0.44727445  0.45508537  0.84627848     0.18100
C880        C  0.40194483  0.46903551  0.81876113     0.26100
C881        C  0.37548455  0.46784891  0.81661054    -0.11600
C882        C  0.36023844  0.48832011  0.82431967    -0.25700
C883        C  0.37204720  0.50980597  0.83510940     0.37000
C884        C  0.39850244  0.51080531  0.83764007    -0.27300
F885        F  0.41596967  0.44946716  0.80956017    -0.19400
H886        H  0.36699063  0.45120385  0.80803779     0.16300
F887        F  0.35809872  0.52985307  0.84336308    -0.23100
H888        H  0.40706341  0.52744081  0.84615945     0.18100
C889        C  0.25103340  0.35629710  0.76864892    -0.27200
C890        C  0.24398129  0.36880137  0.79107283     0.06400
C891        C  0.22470496  0.35812363  0.80622575     0.26000
C892        C  0.21307734  0.33521688  0.79911732    -0.11700
C893        C  0.22029429  0.32260553  0.77669438    -0.25600
C894        C  0.23950094  0.33350182  0.76153459     0.36900
C895        C  0.25690391  0.39291615  0.79821124     0.06400
F896        F  0.21749655  0.36949666  0.82818123    -0.19400
H897        H  0.19838653  0.32739040  0.81116147     0.16300
F898        F  0.24752065  0.32205544  0.73990178    -0.23100
H899        H  0.26549305  0.36430119  0.75644272     0.18100
C900        C  0.28357622  0.39483935  0.79747833     0.26100
C901        C  0.29559179  0.41794492  0.80267033    -0.11600
C902        C  0.28136235  0.43975000  0.80860420    -0.25700
C903        C  0.25466072  0.43768056  0.80990355     0.37000
C904        C  0.24264639  0.41449709  0.80475033    -0.27300
F905        F  0.29811211  0.37431108  0.79181391    -0.19400
H906        H  0.31610510  0.41882065  0.80154523     0.16300
F907        F  0.24005841  0.45797189  0.81618048    -0.23100
H908        H  0.22211288  0.41357674  0.80528035     0.18100
C909        C  0.24217948  0.55953709  0.80721218    -0.27200
C910        C  0.25594920  0.58020630  0.79738313     0.06400
C911        C  0.28209798  0.57726301  0.79269399     0.26000
C912        C  0.29417486  0.55430655  0.79801823    -0.11700
C913        C  0.28046024  0.53355556  0.80764273    -0.25600
C914        C  0.25423502  0.53631529  0.81212402     0.36900
C915        C  0.24325163  0.60478474  0.79186806     0.06400
F916        F  0.29590729  0.59634855  0.78219836    -0.19400
H917        H  0.31428479  0.55260885  0.79399382     0.16300
F918        F  0.24036223  0.51683729  0.82174920    -0.23100
H919        H  0.22210901  0.56143604  0.81131118     0.18100
C920        C  0.22042395  0.60585220  0.77798131     0.26100
C921        C  0.20990778  0.62931821  0.77125454    -0.11600
C922        C  0.22194013  0.65217098  0.77813351    -0.25700
C923        C  0.24440933  0.65100660  0.79269967     0.37000
C924        C  0.25472960  0.62757967  0.79958171    -0.27300
F925        F  0.20878674  0.58427664  0.77001365    -0.19400
H926        H  0.19253590  0.62953703  0.76021541     0.16300
F927        F  0.25662744  0.67241356  0.80026837    -0.23100
H928        H  0.27197567  0.62725971  0.81082152     0.18100
C929        C  0.79216350  0.28257002  0.16761827    -0.27200
C930        C  0.81422247  0.28357377  0.18262952     0.06400
C931        C  0.81223141  0.27867653  0.20880426     0.26000
C932        C  0.78888858  0.27179874  0.21941606    -0.11700
C933        C  0.76688788  0.27006562  0.20431939    -0.25600
C934        C  0.76871365  0.27598497  0.17826352     0.36900
C935        C  0.83919944  0.28918771  0.17073015     0.06400
F936        F  0.83278291  0.28088488  0.22424336    -0.19400
H937        H  0.78807075  0.26786827  0.23957799     0.16300
F938        F  0.74806952  0.27478778  0.16283737    -0.23100
H939        H  0.79319448  0.28631181  0.14742542     0.18100
C940        C  0.86051277  0.27373301  0.17561368     0.26100
C941        C  0.88378526  0.27888045  0.16394765    -0.11600
C942        C  0.88608127  0.29896591  0.14660492    -0.25700
C943        C  0.86482539  0.31432502  0.14149724     0.37000
C944        C  0.84165472  0.30954943  0.15361402    -0.27300
F945        F  0.85858564  0.25292242  0.19071647    -0.19400
H946        H  0.89982316  0.26652866  0.16773158     0.16300
F947        F  0.86656583  0.33414055  0.12508093    -0.23100
H948        H  0.82556489  0.32174790  0.14958971     0.18100
C949        C  0.05222935  0.27950824  0.20986925    -0.27200
C950        C  0.05104012  0.28415009  0.18362556     0.06400
C951        C  0.07344668  0.28189538  0.16921069     0.26000
C952        C  0.09616572  0.27413558  0.18071773    -0.11700
C953        C  0.09706877  0.26830663  0.20677368    -0.25600
C954        C  0.07484343  0.27154467  0.22134736     0.36900
C955        C  0.02618368  0.28991568  0.17133138     0.06400
F956        F  0.07320411  0.28603727  0.14377959    -0.19400
H957        H  0.11292970  0.27202708  0.16900995     0.16300
F958        F  0.07481305  0.26702798  0.24672030    -0.23100
H959        H  0.03546235  0.28178979  0.22154294     0.18100
C960        C  0.00451627  0.27527714  0.17706199     0.26100
C961        C  0.98138635  0.28010939  0.16494594    -0.11600
C962        C  0.97942422  0.29918439  0.14645116    -0.25700
C963        C  0.00091584  0.31400591  0.14076720     0.37000
C964        C  0.02400210  0.30953678  0.15329818    -0.27300
F965        F  0.00589634  0.25553943  0.19360233    -0.29400
H966        H  0.96513999  0.26830486  0.16942883     0.16300
F967        F  0.99947969  0.33308408  0.12346986    -0.23100
H968        H  0.04019709  0.32141969  0.14888670     0.18100
C969        C  0.86806456  0.68816995  0.81583939    -0.27200
C970        C  0.84509482  0.67878820  0.82542006     0.06400
C971        C  0.84524198  0.66448464  0.84794466     0.26000
C972        C  0.86796242  0.66101411  0.86146154    -0.11700
C973        C  0.89090700  0.67130903  0.85241131    -0.25600
C974        C  0.89080355  0.68433337  0.82898211     0.36900
C975        C  0.82097105  0.68645025  0.81319470     0.06400
F976        F  0.82324978  0.65503122  0.85750656    -0.19400
H977        H  0.86753476  0.65070440  0.87925137     0.16300
F978        F  0.91235101  0.69476806  0.81941138    -0.23100
H979        H  0.86822533  0.69923216  0.79849150     0.18100
C980        C  0.81353096  0.71203570  0.81365584     0.26100
C981        C  0.79098169  0.71972127  0.80194059    -0.11600
C982        C  0.77536291  0.70209113  0.78932432    -0.25700
C983        C  0.78301452  0.67633216  0.78876219     0.37000
C984        C  0.80556834  0.66865136  0.80076069    -0.27300
F985        F  0.82797533  0.72957475  0.82584451    -0.19400
H986        H  0.78573824  0.73958010  0.80287050     0.16300
F987        F  0.76880592  0.65850111  0.77672771    -0.23100
H988        H  0.81116156  0.64886450  0.80014392     0.18100
C989        C  0.01015447  0.68082460  0.81997114    -0.27200
C990        C  0.03116172  0.68797950  0.83471142     0.06400
C991        C  0.02873121  0.68906272  0.86122109     0.26000
C992        C  0.00547681  0.68349137  0.87269262    -0.11700
C993        C  0.98411681  0.67694488  0.85796149    -0.25600
C994        C  0.98683245  0.67537090  0.83136776     0.36900
C995        C  0.05514775  0.69537268  0.82217763     0.06400
F996        F  0.04886085  0.69549319  0.87602587    -0.19400
H997        H  0.00413756  0.68483289  0.89315003     0.16300
F998        F  0.96701840  0.66882220  0.81621863    -0.23100
H999        H  0.01165416  0.68007145  0.79948393     0.18100
C1000       C  0.06682975  0.67927101  0.80444943     0.26100
C1001       C  0.08884473  0.68703677  0.79187162    -0.11600
C1002       C  0.09958715  0.71102614  0.79667220    -0.25700
C1003       C  0.08792901  0.72701695  0.81471066     0.37000
C1004       C  0.06594514  0.71917517  0.82726981    -0.27300
F1005       F  0.05711835  0.65590318  0.79952835    -0.19400
H1006       H  0.09743276  0.67421593  0.77830562     0.16300
F1007       F  0.09756553  0.75028817  0.82023001    -0.23100
H1008       H  0.05704052  0.73193321  0.84070204     0.18100
C1009       C  0.08874797  0.89331986  0.30781926    -0.27200
C1010       C  0.11195709  0.89451124  0.29479634     0.06400
C1011       C  0.12102414  0.91811950  0.28636787     0.26000
C1012       C  0.10691664  0.94013003  0.29065417    -0.11700
C1013       C  0.08334784  0.93902719  0.30317932    -0.25600
C1014       C  0.07444391  0.91533201  0.31192011     0.36900
C1015       C  0.12592131  0.87097842  0.28869221     0.06400
F1016       F  0.14356578  0.91987323  0.27397241    -0.19400
H1017       H  0.11429639  0.95801517  0.28369392     0.16300
F1018       F  0.05204477  0.91335214  0.32451343    -0.23100
H1019       H  0.08141893  0.87521882  0.31428270     0.18100
C1020       C  0.13320926  0.85379376  0.30777761     0.26100
C1021       C  0.14585726  0.83132266  0.30138945    -0.11600
C1022       C  0.15109347  0.82553681  0.27586563    -0.25700
C1023       C  0.14404983  0.84302086  0.25686656     0.37000
C1024       C  0.13162534  0.86548467  0.26330475    -0.27300
F1025       F  0.12826235  0.85883386  0.33254813    -0.19400
H1026       H  0.15105980  0.81821220  0.31636319     0.16300
F1027       F  0.14919127  0.83852466  0.23202604    -0.23100
H1028       H  0.12605085  0.87848080  0.24835992     0.18100
C1029       C  0.10031664  0.12604010  0.28528755    -0.27200
C1030       C  0.11517601  0.10529904  0.29318398     0.06400
C1031       C  0.14170058  0.10838851  0.29506538     0.26000
C1032       C  0.15305842  0.13138769  0.28817651    -0.11700
C1033       C  0.13822475  0.15195119  0.27981212    -0.25600
C1034       C  0.11162367  0.14921060  0.27890490     0.36900
C1035       C  0.10310706  0.08018819  0.29786181     0.06400
F1036       F  0.15666782  0.08921056  0.30367201    -0.19400
H1037       H  0.17353119  0.13313743  0.28945600     0.16300
F1038       F  0.09657130  0.16851562  0.27075554    -0.23100
H1039       H  0.07993171  0.12409410  0.28324886     0.18100
C1040       C  0.08049944  0.07796796  0.31197498     0.26100
C1041       C  0.06878613  0.05429007  0.31495753    -0.11600
C1042       C  0.07949666  0.03232078  0.30424780    -0.25700
C1043       C  0.10226317  0.03453418  0.29037157     0.37000
C1044       C  0.11374213  0.05821935  0.28712235    -0.27300
F1045       F  0.06989211  0.09859153  0.32320359    -0.19400
H1046       H  0.05139309  0.05312552  0.32587158     0.16300
F1047       F  0.11305481  0.01402245  0.27910486    -0.23100
H1048       H  0.13073902  0.05944684  0.27561631     0.18100
C1049       C  0.73738755  0.91753770  0.70578446    -0.27200
C1050       C  0.75096038  0.89526313  0.70041844     0.06400
C1051       C  0.77532252  0.89697022  0.68984537     0.26000
C1052       C  0.78648461  0.92064192  0.68592863    -0.11700
C1053       C  0.77352390  0.94311311  0.69233185    -0.25600
C1054       C  0.74841553  0.94135297  0.70156730     0.36900
C1055       C  0.74063513  0.87022540  0.70743151     0.06400
F1056       F  0.78888830  0.87567230  0.68462026    -0.19400
H1057       H  0.80564396  0.92128383  0.67849644     0.16300
F1058       F  0.73486440  0.96242800  0.70758789    -0.23100
H1059       H  0.71845742  0.91643178  0.71375276     0.18100
C1060       C  0.73607059  0.86426886  0.73301006     0.26100
C1061       C  0.72886138  0.83967933  0.73987566    -0.11600
C1062       C  0.72563028  0.82085888  0.72127949    -0.25700
C1063       C  0.72972074  0.82702722  0.69560686     0.37000
C1064       C  0.73737046  0.85149527  0.68882198    -0.27300
F1065       F  0.73936239  0.88202529  0.75139165    -0.19400
H1066       H  0.72548700  0.83542793  0.75970149     0.16300
F1067       F  0.72699224  0.80925600  0.67714964    -0.23100
H1068       H  0.74099659  0.85581505  0.66905659     0.18100
C1069       C  0.73890681  0.06269202  0.71012338    -0.27200
C1070       C  0.75102689  0.08493539  0.70171493     0.06400
C1071       C  0.77466160  0.08299860  0.68947221     0.26000
C1072       C  0.78615760  0.05932884  0.68634870    -0.11700
C1073       C  0.77426680  0.03708339  0.69511547    -0.25600
C1074       C  0.75028565  0.03894937  0.70677517     0.36900
C1075       C  0.73955015  0.11007170  0.70699915     0.06400
F1076       F  0.78661922  0.10397337  0.68041245    -0.19400
H1077       H  0.80447576  0.05843940  0.67704605     0.16300
F1078       F  0.73829262  0.01807392  0.71598021    -0.23100
H1079       H  0.72091716  0.06375591  0.72002090     0.18100
C1080       C  0.71362934  0.11463595  0.70227701     0.26100
C1081       C  0.70267855  0.13777435  0.70920313    -0.11600
C1082       C  0.71746435  0.15690475  0.72042794    -0.25700
C1083       C  0.74352180  0.15268594  0.72444451     0.37000
C1084       C  0.75436488  0.12936779  0.71799296    -0.27300
F1085       F  0.69893940  0.09681775  0.69080935    -0.19400
H1086       H  0.68262261  0.14081547  0.70568406     0.16300
F1087       F  0.75823502  0.17060792  0.73572635    -0.23100
H1088       H  0.77423922  0.12613911  0.72225423     0.18100
C1089       C  0.22628467  0.16035923  0.85686327    -0.27200
C1090       C  0.21406246  0.16822447  0.87923770     0.06400
C1091       C  0.19658498  0.18842587  0.87791117     0.26000
C1092       C  0.19169272  0.20051927  0.85479419    -0.11700
C1093       C  0.20374230  0.19255755  0.83236577    -0.25600
C1094       C  0.22105918  0.17216780  0.83362068     0.36900
C1095       C  0.21967343  0.15544066  0.90382832     0.06400
F1096       F  0.18362554  0.19606032  0.89881984    -0.19400
H1097       H  0.17799964  0.21587233  0.85440381     0.16300
F1098       F  0.23326328  0.16381280  0.81253217    -0.23100
H1099       H  0.24013737  0.14515930  0.85739098     0.18100
C1100       C  0.22061588  0.12878520  0.90563854     0.26100
C1101       C  0.22599858  0.11705663  0.92884959    -0.11600
C1102       C  0.23023124  0.13153590  0.95088867    -0.25700
C1103       C  0.22917140  0.15822176  0.94908800     0.37000
C1104       C  0.22416389  0.16994231  0.92577063    -0.27300
F1105       F  0.21562625  0.11397915  0.88514953    -0.19400
H1106       H  0.22641284  0.09650715  0.92959783     0.16300
F1107       F  0.23338905  0.17311932  0.96967598    -0.23100
H1108       H  0.22405066  0.19048530  0.92483555     0.18100
C1109       C  0.20987272  0.16177289  0.07102697    -0.27200
C1110       C  0.22479789  0.15534711  0.09225434     0.06400
C1111       C  0.24404032  0.13697122  0.08941247     0.26000
C1112       C  0.24799082  0.12525707  0.06591633    -0.11700
C1113       C  0.23322942  0.13194470  0.04469181    -0.25600
C1114       C  0.21417543  0.15045290  0.04743510     0.36900
C1115       C  0.21991859  0.16772380  0.11717821     0.06400
F1116       F  0.25940352  0.13068610  0.10916041    -0.19400
H1117       H  0.26284623  0.11112756  0.06423522     0.16300
F1118       F  0.19900997  0.15692493  0.02759456    -0.23100
H1119       H  0.19451533  0.17532940  0.07277413     0.18100
C1120       C  0.21575757  0.19407857  0.11873352     0.26100
C1121       C  0.20999096  0.20540196  0.14198479    -0.11600
C1122       C  0.20854074  0.19087492  0.16435972    -0.25700
C1123       C  0.21332180  0.16457313  0.16294245     0.37000
C1124       C  0.21872908  0.15317188  0.13955259    -0.27300
F1125       F  0.21762139  0.20905122  0.09782426    -0.19400
H1126       H  0.20675178  0.22570152  0.14242968     0.16300
F1127       F  0.21214557  0.14968134  0.18395392    -0.23100
H1128       H  0.22145037  0.13280959  0.13888334     0.18100
C1129       C  0.65499581  0.80355273  0.93008664    -0.27200
C1130       C  0.65762633  0.81793744  0.90785769     0.06400
C1131       C  0.65411630  0.84430248  0.90875476     0.26000
C1132       C  0.64744738  0.85602683  0.93157099    -0.11700
C1133       C  0.64432343  0.84168571  0.95395383    -0.25600
C1134       C  0.64860501  0.81525062  0.95303287     0.36900
C1135       C  0.66240887  0.80508706  0.88350410     0.06400
F1136       F  0.65631886  0.85856814  0.88739012    -0.19400
H1137       H  0.64450371  0.87638422  0.93159562     0.16300
F1138       F  0.64593041  0.80051117  0.97400629    -0.23100
H1139       H  0.65760516  0.78314988  0.92955368     0.18100
C1140       C  0.68618899  0.80657432  0.87162359     0.26100
C1141       C  0.69034755  0.79396643  0.84861935    -0.11600
C1142       C  0.67075626  0.77988922  0.83697265    -0.25700
C1143       C  0.64680770  0.77881509  0.84896362     0.37000
C1144       C  0.64284293  0.79118144  0.87206742    -0.27300
F1145       F  0.70541744  0.81993527  0.88244337    -0.19400
H1146       H  0.70893226  0.79529415  0.83991532     0.16300
F1147       F  0.62712600  0.76586006  0.83849648    -0.23100
H1148       H  0.62435619  0.79006232  0.88103032     0.18100
C1149       C  0.62599198  0.83998268  0.09286817    -0.27200
C1150       C  0.64063298  0.81776145  0.09468508     0.06400
C1151       C  0.65121390  0.80744466  0.07246419     0.26000
C1152       C  0.64736052  0.81929155  0.04902920    -0.11700
C1153       C  0.63306278  0.84180444  0.04716573    -0.25600
C1154       C  0.62227243  0.85198140  0.06946233     0.36900
C1155       C  0.64500455  0.80555546  0.11973544     0.06400
F1156       F  0.66601911  0.78634643  0.07347302    -0.19400
H1157       H  0.65607824  0.81100885  0.03237756     0.16300
F1158       F  0.60797202  0.87341642  0.06882308    -0.23100
H1159       H  0.61727757  0.84803876  0.10963995     0.18100
C1160       C  0.65287552  0.81994746  0.14083681     0.26100
C1161       C  0.65763341  0.80807919  0.16410852    -0.11600
C1162       C  0.65508318  0.78164473  0.16669063    -0.25700
C1163       C  0.64689518  0.76729622  0.14571780     0.37000
C1164       C  0.64172589  0.77921685  0.12256648    -0.27300
F1165       F  0.65695712  0.84532296  0.13873815    -0.19400
H1166       H  0.66410973  0.81949769  0.17993685     0.16300
F1167       F  0.64353514  0.74180503  0.14766037    -0.23100
H1168       H  0.63515041  0.76781636  0.10677621     0.18100
C1169       C  0.90681476  0.29619410  0.97339828    -0.27200
C1170       C  0.92743856  0.30881472  0.98473178     0.06400
C1171       C  0.94718853  0.31786025  0.96914598     0.26000
C1172       C  0.94681233  0.31328859  0.94302241    -0.11700
C1173       C  0.92649663  0.30014840  0.93179757    -0.25600
C1174       C  0.90614332  0.29212304  0.94719187     0.36900
C1175       C  0.92905138  0.31089906  0.01283145     0.06400
F1176       F  0.96686701  0.33119246  0.97914539    -0.19400
H1177       H  0.96243721  0.32010212  0.93154206     0.16300
F1178       F  0.88611031  0.27930659  0.93719254    -0.23100
H1179       H  0.89156482  0.28867790  0.98493060     0.18100
C1180       C  0.90786364  0.31799298  0.02747808     0.26100
C1181       C  0.90934389  0.31800669  0.05399201    -0.11600
C1182       C  0.93197227  0.31112946  0.06651373    -0.25700
C1183       C  0.95334321  0.30464060  0.05177767     0.37000
C1184       C  0.95175431  0.30439967  0.02530877    -0.27300
F1185       F  0.88571652  0.32497967  0.01621697    -0.19400
H1186       H  0.89262107  0.32322411  0.06473066     0.16300
F1187       F  0.97553133  0.29740663  0.06278021    -0.23100
H1188       H  0.96816199  0.29829297  0.01456089     0.18100
C1189       C  0.85574943  0.26839174  0.81616881    -0.27200
C1190       C  0.83324466  0.27647943  0.82802299     0.06400
C1191       C  0.83470201  0.28785234  0.85208981     0.26000
C1192       C  0.85809061  0.29067978  0.86416922    -0.11700
C1193       C  0.88067800  0.28252518  0.85249700    -0.25600
C1194       C  0.87930168  0.27147799  0.82816028     0.36900
C1195       C  0.80823924  0.27255530  0.81564871     0.06400
F1196       F  0.81352291  0.29669275  0.86383026    -0.19400
H1197       H  0.85843899  0.29951556  0.88269147     0.16300
F1198       F  0.90049973  0.26314088  0.81610029    -0.23100
H1199       H  0.85506352  0.25925375  0.79780039     0.18100
C1200       C  0.80426729  0.27903656  0.79003185     0.26100
C1201       C  0.78051848  0.27513173  0.77878981    -0.11600
C1202       C  0.76026349  0.26515362  0.79298536    -0.25700
C1203       C  0.76415899  0.25887408  0.81861787     0.37000
C1204       C  0.78799809  0.26229591  0.82969706    -0.27300
F1205       F  0.82313361  0.28960317  0.77600207    -0.19400
H1206       H  0.77788427  0.28009963  0.75901949     0.16300
F1207       F  0.74525199  0.24844227  0.83270647    -0.23100
H1208       H  0.79073050  0.25659595  0.84924744     0.18100
C1209       C  0.02040931  0.27580768  0.85362417    -0.27200
C1210       C  0.02092860  0.27537953  0.82694855     0.06400
C1211       C  0.99801367  0.27893700  0.81358763     0.26000
C1212       C  0.97518727  0.28240511  0.82666302    -0.11700
C1213       C  0.97463374  0.28285567  0.85334171    -0.25600
C1214       C  0.99765863  0.27978927  0.86672921     0.36900
C1215       C  0.04524070  0.27082848  0.81324190     0.06400
F1216       F  0.99767207  0.27960111  0.78783411    -0.19400
H1217       H  0.95792149  0.28499987  0.81577540     0.16300
F1218       F  0.99828801  0.28004952  0.89248743    -0.23100
H1219       H  0.03761311  0.27262602  0.86444675     0.18100
C1220       C  0.06788161  0.28295758  0.82076550     0.26100
C1221       C  0.09064973  0.27800315  0.80806831    -0.11600
C1222       C  0.09136587  0.26119402  0.78737312    -0.25700
C1223       C  0.06868829  0.24934071  0.77958337     0.37000
C1224       C  0.04600316  0.25393143  0.79259109    -0.27300
F1225       F  0.06802156  0.29995186  0.84012294    -0.19400
H1226       H  0.10777874  0.28748154  0.81440343     0.16300
F1227       F  0.06851443  0.23259340  0.76000784    -0.23100
H1228       H  0.02906808  0.24382858  0.78675755     0.18100
C1229       C  0.95312942  0.66525124  0.03268433    -0.27200
C1230       C  0.93274296  0.67506349  0.01840622     0.06400
C1231       C  0.91225428  0.68634395  0.03140849     0.26000
C1232       C  0.91226652  0.68764291  0.05795508    -0.11700
C1233       C  0.93292486  0.67835187  0.07210735    -0.25600
C1234       C  0.95344376  0.66716231  0.05917158     0.36900
C1235       C  0.93314710  0.67364035  0.99011196     0.06400
F1236       F  0.89261723  0.69698449  0.01848847    -0.19400
H1237       H  0.89640602  0.69666650  0.06742603     0.16300
F1238       F  0.97363588  0.65762380  0.07210913    -0.23100
H1239       H  0.96887797  0.65593679  0.02333015     0.18100
C1240       C  0.95536828  0.67947950  0.97645002     0.26100
C1241       C  0.95568128  0.67785292  0.94999063    -0.11600
C1242       C  0.93381547  0.67076807  0.93628641    -0.25700
C1243       C  0.91149316  0.66509946  0.94991515     0.37000
C1244       C  0.91131122  0.66632782  0.97649984    -0.27300
F1245       F  0.97668381  0.68753120  0.98855127    -0.19400
H1246       H  0.97311940  0.68266921  0.94022359     0.16300
F1247       F  0.88986898  0.65812209  0.93771747    -0.23100
H1248       H  0.89406476  0.66127906  0.98647232     0.18100
C1249       C  0.81128066  0.69580905  0.21630520    -0.27200
C1250       C  0.81424843  0.69619848  0.18979876     0.06400
C1251       C  0.79298062  0.70193879  0.17456425     0.26000
C1252       C  0.76952632  0.70765097  0.18569227    -0.11700
C1253       C  0.76678465  0.70814094  0.21221865    -0.25600
C1254       C  0.78790471  0.70183764  0.22745517     0.36900
C1255       C  0.83962423  0.69154144  0.17815553     0.06400
F1256       F  0.79509513  0.70318677  0.14891701    -0.19400
H1257       H  0.75368593  0.71254799  0.17349641     0.16300
F1258       F  0.78599866  0.70134038  0.25314520    -0.23100
H1259       H  0.82715959  0.69093140  0.22845176     0.18100
C1260       C  0.86147613  0.70405568  0.18724778     0.26100
C1261       C  0.88486344  0.70100525  0.17498527    -0.11600
C1262       C  0.88694243  0.68572988  0.15322974    -0.25700
C1263       C  0.86532335  0.67246512  0.14469922     0.37000
C1264       C  0.84200185  0.67528345  0.15714126    -0.27300
F1265       F  0.86002840  0.72027708  0.20720318    -0.19400
H1266       H  0.90115717  0.71145462  0.18194931     0.16300
F1267       F  0.86669041  0.65666955  0.12439675    -0.23100
H1268       H  0.82567267  0.66489929  0.15017221     0.18100
C1269       C  0.00564599  0.70291352  0.18915229    -0.27200
C1270       C  0.02777312  0.70491731  0.17453132     0.06400
C1271       C  0.02639631  0.70141808  0.14821949     0.26000
C1272       C  0.00310778  0.69606262  0.13663370    -0.11700
C1273       C  0.98063939  0.69417842  0.15105851    -0.25600
C1274       C  0.98221901  0.69766918  0.17761453     0.36900
C1275       C  0.05247388  0.71003858  0.18673352     0.06400
F1276       F  0.04768196  0.70298611  0.13376679    -0.19400
H1277       H  0.00275017  0.69348885  0.11625795     0.16300
F1278       F  0.96129240  0.69599094  0.19255200    -0.23100
H1279       H  0.00654740  0.70545519  0.20952930     0.18100
C1280       C  0.06274183  0.73461897  0.18687379     0.26100
C1281       C  0.08683781  0.73897192  0.19727274    -0.11600
C1282       C  0.10107678  0.71886047  0.20773597    -0.25700
C1283       C  0.09046659  0.69422706  0.20771101     0.37000
C1284       C  0.06638765  0.68996920  0.19728807    -0.27300
F1285       F  0.04945227  0.75436650  0.17692095    -0.19400
H1286       H  0.09430046  0.75812850  0.19718413     0.16300
F1287       F  0.10342821  0.67410085  0.21732776    -0.23100
H1288       H  0.05869678  0.67089625  0.19711625     0.18100
C1289       C  0.94826807  0.96611125  0.69907380    -0.27200
C1290       C  0.93593445  0.98740690  0.68883847     0.06400
C1291       C  0.95052261  0.00814712  0.68048339     0.26000
C1292       C  0.97699659  0.00761643  0.68263538    -0.11700
C1293       C  0.98941543  0.98635854  0.69301409    -0.25600
C1294       C  0.97472373  0.96549828  0.70116917     0.36900
C1295       C  0.90784355  0.98829490  0.68806498     0.06400
F1296       F  0.93917707  0.02878725  0.66994819    -0.19400
H1297       H  0.98779453  0.02380629  0.67599010     0.16300
F1298       F  0.98574008  0.94481581  0.71196153    -0.23100
H1299       H  0.93732640  0.95014087  0.70602164     0.18100
C1300       C  0.89371266  0.96843854  0.67715579     0.26100
C1301       C  0.86715795  0.96910940  0.67757706    -0.11600
C1302       C  0.85426047  0.98963171  0.68873744    -0.25700
C1303       C  0.86847712  0.00950683  0.69961662     0.37000
C1304       C  0.89499118  0.00876931  0.69923568    -0.27300
F1305       F  0.90558138  0.94858715  0.66578800    -0.19400
H1306       H  0.85667528  0.95363733  0.66899892     0.16300
F1307       F  0.85685762  0.02920874  0.71148854    -0.23100
H1308       H  0.90554358  0.02397077  0.70820306     0.18100
C1309       C  0.10995333  0.86011745  0.74126662    -0.27200
C1310       C  0.10939755  0.86919127  0.71623873     0.06400
C1311       C  0.12291384  0.85604426  0.69737644     0.26000
C1312       C  0.13672675  0.83419248  0.70358221    -0.11700
C1313       C  0.13726828  0.82500272  0.72867637    -0.25600
C1314       C  0.12362123  0.83826763  0.74750219     0.36900
C1315       C  0.09512684  0.89269208  0.71027512     0.06400
F1316       F  0.12229396  0.86399322  0.67286341    -0.19400
H1317       H  0.14677940  0.82431543  0.68862914     0.16300
F1318       F  0.12352309  0.83035477  0.77203327    -0.23100
H1319       H  0.09997230  0.87018772  0.75614764     0.18100
C1320       C  0.06976567  0.89559310  0.71813527     0.26100
C1321       C  0.05699647  0.91846310  0.71391900    -0.11600
C1322       C  0.06932966  0.93895239  0.70207350    -0.25700
C1323       C  0.09451301  0.93585083  0.69367968     0.37000
C1324       C  0.10722713  0.91287348  0.69772368    -0.27300
F1325       F  0.05733245  0.87630639  0.72990572    -0.19400
H1326       H  0.03759856  0.92033976  0.72051081     0.16300
F1327       F  0.10678258  0.95489705  0.68138479    -0.23100
H1328       H  0.12678057  0.91104846  0.69159786     0.18100
C1329       C  0.10267061  0.12595585  0.69933377    -0.27200
C1330       C  0.11064220  0.10362800  0.71164552     0.06400
C1331       C  0.13177527  0.10481903  0.72803037     0.26000
C1332       C  0.14440520  0.12784643  0.73204831    -0.11700
C1333       C  0.13607522  0.15031013  0.72020294    -0.25600
C1334       C  0.11502115  0.14908719  0.70368624     0.36900
C1335       C  0.09671665  0.07933328  0.70756933     0.06400
F1336       F  0.13967906  0.08394817  0.74097228    -0.19400
H1337       H  0.16032314  0.12819510  0.74508968     0.16300
F1338       F  0.10635796  0.17016450  0.69159772    -0.23100
H1339       H  0.08680550  0.12551400  0.68623810     0.18100
C1340       C  0.06998672  0.07846796  0.70833464     0.26100
C1341       C  0.05714705  0.05547729  0.70487316    -0.11600
C1342       C  0.07055939  0.03270673  0.70088045    -0.25700
C1343       C  0.09734075  0.03362325  0.69997512     0.37000
C1344       C  0.11014361  0.05670399  0.70310083    -0.27300
F1345       F  0.05620912  0.09968042  0.71332334    -0.19400
H1346       H  0.03659753  0.05550013  0.70590957     0.16300
F1347       F  0.11131741  0.01233120  0.69599843    -0.23100
H1348       H  0.13068436  0.05687597  0.70192493     0.18100
C1349       C  0.90451000  0.96432800  0.32296328    -0.27200
C1350       C  0.91933472  0.98532254  0.31584408     0.06400
C1351       C  0.90710318  0.00719610  0.30649771     0.26000
C1352       C  0.88062267  0.00808618  0.30471935    -0.11700
C1353       C  0.86571553  0.98706863  0.31173423    -0.25600
C1354       C  0.87801205  0.96507580  0.32091688     0.36900
C1355       C  0.94749909  0.98391208  0.31719261     0.06400
F1356       F  0.92075893  0.02737695  0.29806655    -0.19400
H1357       H  0.87184264  0.02510960  0.29720245     0.16300
F1358       F  0.86456073  0.94429074  0.32811749    -0.23100
H1359       H  0.91349608  0.94727935  0.33018910     0.18100
C1360       C  0.96183289  0.00374909  0.32791494     0.26100
C1361       C  0.98836593  0.00316631  0.32698615    -0.11600
C1362       C  0.00118840  0.98256875  0.31589944    -0.25700
C1363       C  0.98685729  0.96203317  0.30644533     0.37000
C1364       C  0.96029312  0.96283908  0.30700512    -0.27300
F1365       F  0.95020787  0.02365640  0.33942702    -0.19400
H1366       H  0.99891625  0.01896259  0.33488025     0.16300
F1367       F  0.99835968  0.94172141  0.29552280    -0.23100
H1368       H  0.94967808  0.94729467  0.29870564     0.18100
C1369       C  0.75107011  0.91732370  0.28282255    -0.27200
C1370       C  0.75943300  0.89576342  0.29618433     0.06400
C1371       C  0.77979584  0.89822133  0.31332702     0.26000
C1372       C  0.79194741  0.92163199  0.31639618    -0.11700
C1373       C  0.78382005  0.94309817  0.30274849    -0.25600
C1374       C  0.76298336  0.94081569  0.28614640     0.36900
C1375       C  0.74742896  0.87070836  0.29140411     0.06400
F1376       F  0.78785276  0.87803401  0.32722340    -0.19400
H1377       H  0.80781955  0.92296983  0.32943422     0.16300
F1378       F  0.75493752  0.96090843  0.27210858    -0.23100
H1379       H  0.73571948  0.91582299  0.26919914     0.18100
C1380       C  0.72083878  0.86811571  0.29106617     0.26100
C1381       C  0.70973927  0.84475363  0.28519722    -0.11600
C1382       C  0.72485697  0.82342111  0.27979293    -0.25700
C1383       C  0.75148115  0.82588780  0.28050958     0.37000
C1384       C  0.76258710  0.84935742  0.28616305    -0.27300
F1385       F  0.70555412  0.88810246  0.29669134    -0.19400
H1386       H  0.68920527  0.84333679  0.28498060     0.16300
F1387       F  0.76679182  0.80595199  0.27477239    -0.23100
H1388       H  0.78309810  0.85100255  0.28582896     0.18100
C1389       C  0.78712619  0.07945499  0.28036039    -0.27200
C1390       C  0.76240143  0.08336575  0.28956288     0.06400
C1391       C  0.75030691  0.06369754  0.30300209     0.26000
C1392       C  0.76265839  0.04044831  0.30677321    -0.11700
C1393       C  0.78738035  0.03651961  0.29752061    -0.25600
C1394       C  0.79957395  0.05631559  0.28432648     0.36900
C1395       C  0.74907796  0.10762485  0.28422223     0.06400
F1396       F  0.72672182  0.06712593  0.31283757    -0.19400
H1397       H  0.75300134  0.02558689  0.31720550     0.16300
F1398       F  0.82313442  0.05300379  0.27439590    -0.23100
H1399       H  0.79661493  0.09419075  0.26960188     0.18100
C1400       C  0.76050353  0.13108035  0.28984540     0.26100
C1401       C  0.74818801  0.15381350  0.28367245    -0.11600
C1402       C  0.72424361  0.15368148  0.27170851    -0.25700
C1403       C  0.71273992  0.13007738  0.26632958     0.37000
C1404       C  0.72508262  0.10737897  0.27257219    -0.27300
F1405       F  0.78345634  0.13202040  0.30159973    -0.19400
H1406       H  0.75750488  0.17156026  0.28825422     0.16300
F1407       F  0.68977950  0.12875884  0.25463558    -0.23100
H1408       H  0.71609274  0.08950853  0.26780022     0.18100
C1409       C  0.61436635  0.01088996  0.01727851    -0.27200
C1410       C  0.60321353  0.99907007  0.99613868     0.06400
C1411       C  0.59395156  0.01430155  0.97620209     0.26000
C1412       C  0.59688842  0.04070972  0.97707478    -0.11700
C1413       C  0.60863338  0.05246932  0.99800463    -0.25600
C1414       C  0.61696791  0.03722350  0.01835112     0.36900
C1415       C  0.60298456  0.97090091  0.99484229     0.06400
F1416       F  0.58188943  0.00375353  0.95600809    -0.19400
H1417       H  0.58989338  0.05197646  0.96133591     0.16300
F1418       F  0.62861683  0.04751823  0.03890555    -0.23100
H1419       H  0.62189240  0.99960926  0.03276564     0.18100
C1420       C  0.61237189  0.95808182  0.97339656     0.26100
C1421       C  0.61630338  0.93186838  0.97418191    -0.11600
C1422       C  0.61144089  0.91789139  0.99643491    -0.25700
C1423       C  0.60063673  0.93051542  0.01737486     0.37000
C1424       C  0.59638475  0.95669743  0.01644945    -0.27300
F1425       F  0.61971225  0.97101806  0.95235250    -0.19400
H1426       H  0.62452263  0.92279348  0.95768192     0.16300
F1427       F  0.59483420  0.91785933  0.03904977    -0.23100
H1428       H  0.58880093  0.96610139  0.03307837     0.18100
C1429       C  0.62684072  0.19819618  0.87700603    -0.27200
C1430       C  0.63294550  0.17246260  0.88087709     0.06400
C1431       C  0.64574019  0.15920486  0.86150176     0.26000
C1432       C  0.65211243  0.17143456  0.83885727    -0.11700
C1433       C  0.64653290  0.19724837  0.83528463    -0.25600
C1434       C  0.63384585  0.21060289  0.85457784     0.36900
C1435       C  0.62668008  0.15967625  0.90527129     0.06400
F1436       F  0.65298961  0.13466887  0.86476738    -0.19400
H1437       H  0.66211021  0.16086883  0.82434179     0.16300
F1438       F  0.62770782  0.23546587  0.85153228    -0.23100
H1439       H  0.61657619  0.20872692  0.89133977     0.18100
C1440       C  0.63186061  0.17145537  0.92867453     0.26100
C1441       C  0.62789625  0.15838239  0.95141193    -0.11600
C1442       C  0.61892123  0.13320070  0.95143161    -0.25700
C1443       C  0.61282019  0.12176944  0.92801462     0.37000
C1444       C  0.61649694  0.13499784  0.90529189    -0.27300
F1445       F  0.64196673  0.19515380  0.92965187    -0.19400
H1446       H  0.63271223  0.16782466  0.96900842     0.16300
F1447       F  0.60360850  0.09771931  0.92685765    -0.23100
H1448       H  0.61166348  0.12575163  0.88759485     0.18100
C1449       C  0.63117377  0.16336675  0.13720246    -0.27200
C1450       C  0.64247400  0.17117595  0.11439456     0.06400
C1451       C  0.65890435  0.19222520  0.11454216     0.26000
C1452       C  0.66420006  0.20492705  0.13724281    -0.11700
C1453       C  0.65328590  0.19685831  0.16024223    -0.25600
C1454       C  0.63641629  0.17605151  0.15991465     0.36900
C1455       C  0.63686056  0.15746407  0.09050190     0.06400
F1456       F  0.67046520  0.20000300  0.09286099    -0.19400
H1457       H  0.67733900  0.22075286  0.13687972     0.16300
F1458       F  0.62474607  0.16805105  0.18144851    -0.23100
H1459       H  0.61809711  0.14748188  0.13737589     0.18100
C1460       C  0.64027235  0.13103600  0.08872012     0.26100
C1461       C  0.63492564  0.11837487  0.06599464    -0.11600
C1462       C  0.62616949  0.13182946  0.04461971    -0.25700
C1463       C  0.62256175  0.15828477  0.04658325     0.37000
C1464       C  0.62789057  0.17087997  0.06930039    -0.27300
F1465       F  0.64942508  0.11757610  0.10873698    -0.19400
H1466       H  0.63805881  0.09807320  0.06502441     0.16300
F1467       F  0.61338961  0.17200904  0.02676594    -0.23100
H1468       H  0.62475620  0.19117597  0.07043790     0.18100
C1469       C  0.26416514  0.01471590  0.97601789    -0.27200
C1470       C  0.25911732  0.00052319  0.99801039     0.06400
C1471       C  0.25162930  0.01322886  0.02021957     0.26000
C1472       C  0.24860021  0.03955823  0.02015381    -0.11700
C1473       C  0.25271093  0.05376297  0.99791625    -0.25600
C1474       C  0.26096386  0.04107424  0.97586381     0.36900
C1475       C  0.26043087  0.97244744  0.99743506     0.06400
F1476       F  0.24597808  0.00007528  0.04166032    -0.19400
H1477       H  0.24210898  0.04868827  0.03737633     0.16300
F1478       F  0.26586197  0.05400128  0.95410866    -0.23100
H1479       H  0.27034351  0.00530373  0.95882498     0.18100
C1480       C  0.24737804  0.95869326  0.97864586     0.26100
C1481       C  0.24721886  0.93219785  0.97922147    -0.11600
C1482       C  0.25977359  0.91889829  0.99868004    -0.25700
C1483       C  0.27334176  0.93265908  0.01715754     0.37000
C1484       C  0.27371856  0.95919085  0.01640681    -0.27300
F1485       F  0.23372024  0.97085399  0.96044110    -0.19400
H1486       H  0.23644007  0.92211816  0.96489845     0.16300
F1487       F  0.28628846  0.92055174  0.03590402    -0.23100
H1488       H  0.28420058  0.96944242  0.03083011     0.18100
C1489       C  0.22044469  0.83644692  0.91573594    -0.27200
C1490       C  0.22832116  0.81123775  0.91233218     0.06400
C1491       C  0.24237505  0.79919103  0.93161063     0.26000
C1492       C  0.24842075  0.81233596  0.95392363    -0.11700
C1493       C  0.24094751  0.83777332  0.95706422    -0.25600
C1494       C  0.22668523  0.84965009  0.93780041     0.36900
C1495       C  0.22197673  0.79809114  0.88834910     0.06400
F1496       F  0.24995528  0.77469121  0.92898576    -0.19400
H1497       H  0.25932097  0.80279537  0.96854004     0.16300
F1498       F  0.21830221  0.87389391  0.94043676    -0.23100
H1499       H  0.20965257  0.84604769  0.90107550     0.18100
C1500       C  0.19670051  0.79701940  0.87985578     0.26100
C1501       C  0.19099260  0.78685076  0.85606843    -0.11600
C1502       C  0.21033445  0.77743363  0.84024267    -0.25700
C1503       C  0.23564787  0.77794095  0.84908992     0.37000
C1504       C  0.24132810  0.78820253  0.87294626    -0.27300
F1505       F  0.17749327  0.80579045  0.89463769    -0.19400
H1506       H  0.17131719  0.78635747  0.85005972     0.16300
F1507       F  0.25501865  0.76921549  0.83451332    -0.23100
H1508       H  0.26094857  0.78911941  0.87909854     0.18100
C1509       C  0.24960822  0.80324513  0.07593483    -0.27200
C1510       C  0.24516471  0.81845198  0.09728393     0.06400
C1511       C  0.24648930  0.84494975  0.09506686     0.26000
C1512       C  0.25106011  0.85609256  0.07148163    -0.11700
C1513       C  0.25406855  0.84100071  0.04963584    -0.25600
C1514       C  0.25392787  0.81434262  0.05222727     0.36900
C1515       C  0.23759548  0.80658251  0.12141368     0.06400
F1516       F  0.24284603  0.86002375  0.11564274    -0.19400
H1517       H  0.25121472  0.87662395  0.07023363     0.16300
F1518       F  0.25742228  0.79894695  0.03188204    -0.23100
H1519       H  0.24877569  0.78273884  0.07748060     0.18100
C1520       C  0.21350586  0.81145951  0.13170024     0.26100
C1521       C  0.20589747  0.79935653  0.15397351    -0.11600
C1522       C  0.22220421  0.78224557  0.16646782    -0.25700
C1523       C  0.24655235  0.77767702  0.15621227     0.37000
C1524       C  0.25400846  0.78964373  0.13374305    -0.27300
F1525       F  0.19705495  0.82737821  0.11977785    -0.19400
H1526       H  0.18710476  0.80332541  0.16133440     0.16300
F1527       F  0.26311932  0.76152373  0.16763033    -0.23100
H1528       H  0.27263926  0.78573735  0.12593566     0.18100
loop_ 
_geom_bond_atom_site_label_1 
_geom_bond_atom_site_label_2 
_geom_bond_distance 
_geom_bond_site_symmetry_2 
_ccdc_geom_bond_type 
C1            N2   1.360       .  A
C1            N6   1.359       .  A
C1         C1513   1.482       .  S
N2            C3   1.358   1_554  A
C3            N4   1.357       .  A
C3         C1493   1.477       .  S
N4            C5   1.356   1_556  A
C5            N6   1.356       .  A
C5         C1482   1.478   1_554  S
C7            N8   1.357   1_554  A
C7           N12   1.358       .  A
C7         C1462   1.483       .  S
N8            C9   1.358       .  A
C9           N10   1.359       .  A
C9         C1442   1.486       .  S
N10          C11   1.359       .  A
C11          N12   1.359   1_556  A
C11        C1413   1.483       .  S
C13          N14   1.359   1_545  A
C13          N18   1.359       .  A
C13        C1393   1.480       .  S
N14          C15   1.359       .  A
C15          N16   1.358       .  A
C15        C1373   1.479       .  S
N16          C17   1.357       .  A
C17          N18   1.360   1_565  A
C17        C1353   1.485       .  S
C19          N20   1.361       .  A
C19          N24   1.360   1_545  A
C19        C1342   1.489       .  S
N20          C21   1.359   1_545  A
C21          N22   1.356       .  A
C21        C1293   1.481   1_455  S
N22          C23   1.356       .  A
C23          N24   1.359       .  A
C23        C1322   1.478       .  S
C25          N26   1.361       .  A
C25          N30   1.360       .  A
C25        C1273   1.491       .  S
N26          C27   1.361       .  A
C27          N28   1.360       .  A
C27        C1262   1.484       .  S
N28          C29   1.359       .  A
C29          N30   1.358       .  A
C29        C1233   1.483       .  S
C31          N32   1.359       .  A
C31          N36   1.357       .  A
C31        C1193   1.483       .  S
N32          C33   1.361       .  A
C33          N34   1.360       .  A
C33        C1213   1.486       .  S
N34          C35   1.358       .  A
C35          N36   1.355       .  A
C35        C1173   1.480       .  S
C37          N38   1.356       .  A
C37          N42   1.359   1_556  A
C37        C1133   1.485       .  S
N38          C39   1.357       .  A
C39          N40   1.359   1_556  A
C39        C1422   1.484       .  S
N40          C41   1.360       .  A
C41          N42   1.361       .  A
C41        C1153   1.488       .  S
C43          N44   1.360   1_554  A
C43          N48   1.357       .  A
C43        C1113   1.479       .  S
N44          C45   1.360       .  A
C45          N46   1.359       .  A
C45        C1102   1.486       .  S
N46          C47   1.358       .  A
C47          N48   1.358   1_556  A
C47        C1473   1.482       .  S
C49          N50   1.360   1_545  A
C49          N54   1.357       .  A
C49        C1073   1.479       .  S
N50          C51   1.360       .  A
C51          N52   1.359       .  A
C51        C1053   1.483       .  S
N52          C53   1.356       .  A
C53          N54   1.355   1_565  A
C53        C1302   1.478       .  S
C55          N56   1.359       .  A
C55          N60   1.357       .  A
C55        C1013   1.482       .  S
N56          C57   1.359       .  A
C57          N58   1.360   1_565  A
C57        C1362   1.482       .  S
N58          C59   1.358       .  A
C59          N60   1.356   1_545  A
C59        C1042   1.482       .  S
C61          N62   1.358       .  A
C61          N66   1.363       .  A
C61         C973   1.485       .  S
N62          C63   1.356       .  A
C63          N64   1.356       .  A
C63         C993   1.485       .  S
N64          C65   1.358       .  A
C65          N66   1.363       .  A
C65        C1242   1.490       .  S
C67          N68   1.357       .  A
C67          N72   1.358       .  A
C67         C942   1.474       .  S
N68          C69   1.359       .  A
C69          N70   1.361       .  A
C69        C1182   1.486       .  S
N70          C71   1.359       .  A
C71          N72   1.359       .  A
C71         C962   1.478       .  S
C73          N74   1.357       .  A
C73          N78   1.359       .  A
C73         C913   1.479       .  S
N74          C75   1.356       .  A
C75          N76   1.360       .  A
C75         C882   1.484       .  S
N76          C77   1.362       .  A
C77          N78   1.361       .  A
C77         C902   1.488       .  S
C79          N80   1.357       .  A
C79          N84   1.359       .  A
C79         C833   1.482       .  S
N80          C81   1.356       .  A
C81          N82   1.355       .  A
C81         C813   1.476       .  S
N82          C83   1.356       .  A
C83          N84   1.358       .  A
C83         C853   1.472       .  S
C85          N86   1.357       .  A
C85          N90   1.359       .  A
C85         C802   1.487       .  S
N86          C87   1.355       .  A
C87          N88   1.357       .  A
C87         C753   1.481       .  S
N88          C89   1.358       .  A
C89          N90   1.361       .  A
C89         C782   1.486       .  S
O91         C107   1.273       .  A
O91         Zn97   2.008       .  S
C92         C893   1.489       .  S
C92         O108   1.274       .  A
C92         O105   1.276       .  A
O93         C106   1.276       .  A
O93        Cd100   2.075       .  S
O94         C112   1.276       .  A
O94        Cd103   2.072       .  S
O95         C109   1.276       .  A
O95         Cd99   2.078       .  S
O96         C107   1.276       .  A
O96         Cd99   2.083       .  S
Zn97        O108   2.013       .  S
Zn97        O110   2.007       .  S
Zn97        O102   1.935       .  S
O98         C109   1.275       .  A
O98        Cd103   2.063       .  S
Cd99        O101   2.074       .  S
Cd99        O102   2.006       .  S
Cd100       O104   2.076       .  S
Cd100       O113   2.073       .  S
Cd100       O102   2.004       .  S
O101        C111   1.275       .  A
O102       Cd103   2.003       .  S
Cd103       O105   2.086       .  S
O104        C111   1.276       .  A
C106        C742   1.485       .  S
C106        O110   1.273       .  A
C107        C793   1.485       .  S
C109       C1222   1.482       .  S
C111       C1333   1.486       .  S
C112       C1093   1.485       .  S
C112        O113   1.275       .  A
C114        N115   1.361       .  A
C114        N119   1.361       .  A
C114        C722   1.488       .  S
N115        C116   1.358       .  A
C116        N117   1.355       .  A
C116        C673   1.472       .  S
N117        C118   1.357       .  A
C118        N119   1.359       .  A
C118        C702   1.482       .  S
C120        N121   1.358       .  A
C120        N125   1.356       .  A
C120        C733   1.481       .  S
N121        C122   1.360       .  A
C122        N123   1.358       .  A
C122        C662   1.484       .  S
N123        C124   1.357       .  A
C124        N125   1.356       .  A
C124        C633   1.478       .  S
O126        C142   1.276       .  A
O126       Zn132   2.023       .  S
C127        C713   1.480       .  S
C127        O143   1.276       .  A
C127        O140   1.273       .  A
O128        C141   1.272       .  A
O128       Cd135   2.045       .  S
O129        C147   1.273       .  A
O129       Cd138   2.066       .  S
O130        C144   1.276       .  A
O130       Cd134   2.070       .  S
O131        C142   1.275       .  A
O131       Cd134   2.068       .  S
Zn132       O143   2.032       .  S
Zn132       O145   2.017       .  S
Zn132       O137   1.944       .  S
O133        C144   1.273       .  A
O133       Cd138   2.055       .  S
Cd134       O136   2.075       .  S
Cd134       O137   1.996       .  S
Cd135       O139   2.063       .  S
Cd135       O148   2.057       .  S
Cd135       O137   1.991       .  S
O136        C146   1.275       .  A
O137       Cd138   1.993       .  S
Cd138       O140   2.058       .  S
O139        C146   1.274       .  A
C141        C653   1.478       .  S
C141        O145   1.275       .  A
C142        C622   1.481       .  S
C144       C1202   1.472       .  S
C146       C1433   1.476       .  S
C147       C1082   1.471       .  S
C147        O148   1.272       .  A
C149        N150   1.361       .  A
C149        N154   1.359       .  A
C149        C593   1.482       .  S
N150        C151   1.360       .  A
C151        N152   1.354       .  A
C151        C582   1.466       .  S
N152        C153   1.354       .  A
C153        N154   1.356       .  A
C153        C762   1.473       .  S
O155        C171   1.274       .  A
O155       Zn161   2.014       .  S
C156       C1313   1.484       .  S
C156        O172   1.274       .  A
C156        O169   1.276       .  A
O157        C170   1.274       .  A
O157       Cd164   2.062       .  S
O158        C176   1.276       .  A
O158       Cd167   2.083       .  S
O159        C173   1.274       .  A
O159       Cd163   2.058       .  S
O160        C171   1.274       .  A
O160       Cd163   2.073       .  S
Zn161       O172   2.007       .  S
Zn161       O174   2.001       .  S
Zn161       O166   1.934       .  S
O162        C173   1.277       .  A
O162       Cd167   2.081       .  S
Cd163       O165   2.060       .  S
Cd163       O166   1.994       .  S
Cd164       O168   2.070       .  S
Cd164       O177   2.072       .  S
Cd164       O166   1.999       .  S
O165        C175   1.274       .  A
O166       Cd167   2.005       .  S
Cd167       O169   2.073       .  S
O168        C175   1.275       .  A
C170       C1002   1.481       .  S
C170        O174   1.272       .  A
C171       C1502   1.485       .  S
C173        C553   1.477       .  S
C175        C922   1.484       .  S
C176        C602   1.489       .  S
C176        O177   1.276       .  A
C178        N179   1.357       .  A
C178        N183   1.358       .  A
C178        C533   1.476       .  S
N179        C180   1.357       .  A
C180        N181   1.359       .  A
C180        C613   1.487       .  S
N181        C182   1.359       .  A
C182        N183   1.359       .  A
C182        C873   1.483       .  S
C184        N185   1.361       .  A
C184        N189   1.357       .  A
C184        C562   1.488       .  S
N185        C186   1.361       .  A
C186        N187   1.358       .  A
C186        C513   1.477       .  S
N187        C188   1.358       .  A
C188        N189   1.356       .  A
C188        C493   1.484       .  S
C190        N191   1.358       .  A
C190        N195   1.359       .  A
C190        C482   1.487       .  S
N191        C192   1.359       .  A
C192        N193   1.360       .  A
C192        C682   1.487       .  S
N193        C194   1.359       .  A
C194        N195   1.359       .  A
C194        C453   1.481       .  S
O196        C212   1.276       .  A
O196       Zn202   2.023       .  S
C197       C1142   1.487       .  S
C197        O213   1.275       .  A
C197        O210   1.275       .  A
O198        C211   1.275       .  A
O198       Cd205   2.072       .  S
O199        C217   1.275       .  A
O199       Cd208   2.063       .  S
O200        C214   1.275       .  A
O200       Cd204   2.071       .  S
O201        C212   1.272       .  A
O201       Cd204   2.050       .  S
Zn202       O213   2.022       .  S
Zn202       O215   2.035       .  S
Zn202       O207   1.945       .  S
O203        C214   1.274       .  A
O203       Cd208   2.072       .  S
Cd204       O206   2.065       .  S
Cd204       O207   1.994       .  S
Cd205       O209   2.081       .  S
Cd205       O218   2.061       .  S
Cd205       O207   1.999       .  S
O206        C216   1.274       .  A
O207       Cd208   1.999       .  S
Cd208       O210   2.070       .  S
O209        C216   1.276       .  A
C211        C982   1.490       .  S
C211        O215   1.278       .  A
C212       C1062   1.473       .  S
C214        C522   1.488       .  S
C216        C462   1.483       .  S
C217        C542   1.473       .  S
C217        O218   1.275       .  A
C219        N220   1.361       .  A
C219        N224   1.359       .  A
C219        C442   1.489       .  S
N220        C221   1.360       .  A
C221        N222   1.357       .  A
C221        C413   1.481       .  S
N222        C223   1.358       .  A
C223        N224   1.358       .  A
C223        C642   1.483       .  S
O225        C241   1.274       .  A
O225       Zn231   2.011       .  S
C226        C422   1.487       .  S
C226        O242   1.272       .  A
C226        O239   1.276       .  A
O227        C240   1.275       .  A
O227       Cd234   2.071       .  S
O228        C246   1.276       .  A
O228       Cd237   2.074       .  S
O229        C243   1.277       .  A
O229       Cd233   2.076       .  S
O230        C241   1.275       .  A
O230       Cd233   2.075       .  S
Zn231       O242   2.006       .  S
Zn231       O244   2.005       .  S
Zn231       O236   1.937       .  S
O232        C243   1.276       .  A
O232       Cd237   2.071       .  S
Cd233       O235   2.075       .  S
Cd233       O236   2.003       .  S
Cd234       O238   2.074       .  S
Cd234       O247   2.072       .  S
Cd234       O236   2.002       .  S
O235        C245   1.275       .  A
O236       Cd237   2.002       .  S
Cd237       O239   2.081       .  S
O238        C245   1.276       .  A
C240        C693   1.484       .  S
C240        O244   1.273       .  A
C241        C393   1.482       .  S
C243       C1453   1.484       .  S
C245        C933   1.487       .  S
C246       C1402   1.488       .  S
C246        O247   1.276       .  A
C248        N249   1.360       .  A
C248        N253   1.360       .  A
C248        C373   1.483       .  S
N249        C250   1.358       .  A
C250        N251   1.356       .  A
C250        C502   1.474       .  S
N251        C252   1.356       .  A
C252        N253   1.358       .  A
C252        C353   1.474       .  S
C254        N255   1.355       .  A
C254        N259   1.362       .  A
C254        C333   1.485       .  S
N255        C256   1.353       .  A
C256        N257   1.355       .  A
C256        C822   1.478       .  S
N257        C258   1.358       .  A
C258        N259   1.363       .  A
C258        C402   1.488       .  S
O260        C276   1.276       .  A
O260       Zn266   2.027       .  S
C261        C382   1.488       .  S
C261        O277   1.276       .  A
C261        O274   1.273       .  A
O262        C275   1.275       .  A
O262       Cd269   2.065       .  S
O263        C281   1.274       .  A
O263       Cd272   2.065       .  S
O264        C278   1.276       .  A
O264       Cd268   2.079       .  S
O265        C276   1.275       .  A
O265       Cd268   2.066       .  S
Zn266       O277   2.034       .  S
Zn266       O279   2.027       .  S
Zn266       O271   1.951       .  S
O267        C278   1.273       .  A
O267       Cd272   2.058       .  S
Cd268       O270   2.073       .  S
Cd268       O271   2.002       .  S
Cd269       O273   2.081       .  S
Cd269       O282   2.071       .  S
Cd269       O271   2.000       .  S
O270        C280   1.275       .  A
O271       Cd272   1.996       .  S
Cd272       O274   2.062       .  S
O273        C280   1.276       .  A
C275        C342   1.478       .  S
C275        O279   1.276       .  A
C276        C473   1.484       .  S
C278       C1382   1.480       .  S
C280       C1253   1.486       .  S
C281       C1162   1.477       .  S
C281        O282   1.275       .  A
O283        C299   1.275       .  A
O283       Zn289   2.026       .  S
C284       C1022   1.478       .  S
C284        O300   1.272       .  A
C284        O297   1.273       .  A
O285        C298   1.273       .  A
O285       Cd292   2.058       .  S
O286        C304   1.275       .  A
O286       Cd295   2.070       .  S
O287        C301   1.276       .  A
O287       Cd291   2.072       .  S
O288        C299   1.273       .  A
O288       Cd291   2.064       .  S
Zn289       O300   2.000       .  S
Zn289       O302   2.009       .  S
Zn289       O294   1.935       .  S
O290        C301   1.273       .  A
O290       Cd295   2.049       .  S
Cd291       O293   2.066       .  S
Cd291       O294   1.998       .  S
Cd292       O296   2.058       .  S
Cd292       O305   2.067       .  S
Cd292       O294   1.995       .  S
O293        C303   1.275       .  A
O294       Cd295   1.992       .  S
Cd295       O297   2.065       .  S
O296        C303   1.274       .  A
C298       C1522   1.480       .  S
C298        O302   1.275       .  A
C299       C1282   1.487       .  S
C301        C573   1.481       .  S
C303        C862   1.473       .  S
C304        C362   1.485       .  S
C304        O305   1.274       .  A
O306        C322   1.272       .  A
O306       Zn312   1.995       .  S
C307        C773   1.479       .  S
C307        O323   1.273       .  A
C307        O320   1.274       .  A
O308        C321   1.276       .  A
O308       Cd315   2.082       .  S
O309        C327   1.276       .  A
O309       Cd318   2.071       .  S
O310        C324   1.276       .  A
O310       Cd314   2.079       .  S
O311        C322   1.273       .  A
O311       Cd314   2.068       .  S
Zn312       O323   2.007       .  S
Zn312       O325   2.026       .  S
Zn312       O317   1.938       .  S
O313        C324   1.275       .  A
O313       Cd318   2.072       .  S
Cd314       O316   2.064       .  S
Cd314       O317   2.004       .  S
Cd315       O319   2.086       .  S
Cd315       O328   2.076       .  S
Cd315       O317   2.003       .  S
O316        C326   1.276       .  A
O317       Cd318   2.001       .  S
Cd318       O320   2.069       .  S
O319        C326   1.277       .  A
C321        C433   1.490       .  S
C321        O325   1.276       .  A
C322        C842   1.472       .  S
C324        C953   1.488       .  S
C326       C1122   1.486       .  S
C327       C1033   1.481       .  S
C327        O328   1.277       .  A
C329        C330   1.405       .  A
C329        C334   1.399       .  A
C329        H339   1.083       .  S
C330        C335   1.481       .  S
C330        C331   1.403       .  A
C331        C332   1.396       .  A
C331        F336   1.358       .  S
C332        C333   1.409       .  A
C332        H337   1.083       .  S
C333        C334   1.409       .  A
C334        F338   1.357       .  S
C335        C340   1.408       .  A
C335        C344   1.403       .  A
C340        C341   1.399       .  A
C340        F345   1.358       .  S
C341        C342   1.405       .  A
C341        H346   1.083       .  S
C342        C343   1.407       .  A
C343        C344   1.397       .  A
C343        F347   1.357       .  S
C344        H348   1.083       .  S
C349        C350   1.404       .  A
C349        C354   1.399       .  A
C349        H359   1.083       .  S
C350        C355   1.476       .  S
C350        C351   1.404       .  A
C351        C352   1.394       .  A
C351        F356   1.358       .  S
C352        C353   1.404       .  A
C352        H357   1.083       .  S
C353        C354   1.407       .  A
C354        F358   1.357       .  S
C355        C360   1.403       .  A
C355        C364   1.401       .  A
C360        C361   1.396       .  A
C360        F365   1.358       .  S
C361        C362   1.407       .  A
C361        H366   1.083       .  S
C362        C363   1.412       .  A
C363        C364   1.399       .  A
C363        F367   1.357       .  S
C364        H368   1.083       .  S
C369        C370   1.402       .  A
C369        C374   1.399       .  A
C369        H379   1.083       .  S
C370        C375   1.476       .  S
C370        C371   1.403       .  A
C371        C372   1.397       .  A
C371        F376   1.357       .  S
C372        C373   1.408       .  A
C372        H377   1.082       .  S
C373        C374   1.410       .  A
C374        F378   1.357       .  S
C375        C380   1.404       .  A
C375        C384   1.400       .  A
C380        C381   1.399       .  A
C380        F385   1.358       .  S
C381        C382   1.408       .  A
C381        H386   1.082       .  S
C382        C383   1.413       .  A
C383        C384   1.398       .  A
C383        F387   1.357       .  S
C384        H388   1.083       .  S
C389        C390   1.402       .  A
C389        C394   1.398       .  A
C389        H399   1.083       .  S
C390        C395   1.478       .  S
C390        C391   1.405       .  A
C391        C392   1.397       .  A
C391        F396   1.358       .  S
C392        C393   1.407       .  A
C392        H397   1.083       .  S
C393        C394   1.409       .  A
C394        F398   1.357       .  S
C395        C400   1.404       .  A
C395        C404   1.400       .  A
C400        C401   1.399       .  A
C400        F405   1.357       .  S
C401        C402   1.408       .  A
C401        H406   1.082       .  S
C402        C403   1.414       .  A
C403        C404   1.397       .  A
C403        F407   1.357       .  S
C404        H408   1.083       .  S
C409        C410   1.403       .  A
C409        C414   1.399       .  A
C409        H419   1.082       .  S
C410        C415   1.478       .  S
C410        C411   1.404       .  A
C411        C412   1.399       .  A
C411        F416   1.358       .  S
C412        C413   1.408       .  A
C412        H417   1.082       .  S
C413        C414   1.407       .  A
C414        F418   1.357       .  S
C415        C420   1.404       .  A
C415        C424   1.401       .  A
C420        C421   1.400       .  A
C420        F425   1.357       .  S
C421        C422   1.408       .  A
C421        H426   1.082       .  S
C422        C423   1.413       .  A
C423        C424   1.397       .  A
C423        F427   1.358       .  S
C424        H428   1.082       .  S
C429        C430   1.402       .  A
C429        C434   1.401       .  A
C429        H439   1.083       .  S
C430        C435   1.480       .  S
C430        C431   1.403       .  A
C431        C432   1.400       .  A
C431        F436   1.358       .  S
C432        C433   1.409       .  A
C432        H437   1.083       .  S
C433        C434   1.412       .  A
C434        F438   1.357       .  S
C435        C440   1.403       .  A
C435        C444   1.402       .  A
C440        C441   1.400       .  A
C440        F445   1.357       .  S
C441        C442   1.409       .  A
C441        H446   1.083       .  S
C442        C443   1.412       .  A
C443        C444   1.400       .  A
C443        F447   1.357       .  S
C444        H448   1.083       .  S
C449        C450   1.405       .  A
C449        C454   1.400       .  A
C449        H459   1.082       .  S
C450        C455   1.484       .  S
C450        C451   1.406       .  A
C451        C452   1.398       .  A
C451        F456   1.358       .  S
C452        C453   1.406       .  A
C452        H457   1.082       .  S
C453        C454   1.408       .  A
C454        F458   1.357       .  S
C455        C460   1.406       .  A
C455        C464   1.404       .  A
C460        C461   1.399       .  A
C460        F465   1.357       .  S
C461        C462   1.406       .  A
C461        H466   1.082       .  S
C462        C463   1.410       .  A
C463        C464   1.399       .  A
C463        F467   1.358       .  S
C464        H468   1.082       .  S
C469        C470   1.404       .  A
C469        C474   1.398       .  A
C469        H479   1.083       .  S
C470        C475   1.482       .  S
C470        C471   1.405       .  A
C471        C472   1.398       .  A
C471        F476   1.357       .  S
C472        C473   1.407       .  A
C472        H477   1.083       .  S
C473        C474   1.410       .  A
C474        F478   1.357       .  S
C475        C480   1.405       .  A
C475        C484   1.403       .  A
C480        C481   1.398       .  A
C480        F485   1.357       .  S
C481        C482   1.408       .  A
C481        H486   1.083       .  S
C482        C483   1.412       .  A
C483        C484   1.398       .  A
C483        F487   1.357       .  S
C484        H488   1.083       .  S
C489        C490   1.401       .  A
C489        C494   1.395       .  A
C489        H499   1.083       .  S
C490        C495   1.477       .  S
C490        C491   1.404       .  A
C491        C492   1.397       .  A
C491        F496   1.357       .  S
C492        C493   1.407       .  A
C492        H497   1.083       .  S
C493        C494   1.412       .  A
C494        F498   1.356       .  S
C495        C500   1.405       .  A
C495        C504   1.404       .  A
C500        C501   1.395       .  A
C500        F505   1.358       .  S
C501        C502   1.404       .  A
C501        H506   1.083       .  S
C502        C503   1.406       .  A
C503        C504   1.398       .  A
C503        F507   1.357       .  S
C504        H508   1.083       .  S
C509        C510   1.406       .  A
C509        C514   1.399       .  A
C509        H519   1.083       .  S
C510        C515   1.487       .  S
C510        C511   1.409       .  A
C511        C512   1.399       .  A
C511        F516   1.357       .  S
C512        C513   1.403       .  A
C512        H517   1.083       .  S
C513        C514   1.406       .  A
C514        F518   1.358       .  S
C515        C520   1.407       .  A
C515        C524   1.404       .  A
C520        C521   1.399       .  A
C520        F525   1.358       .  S
C521        C522   1.407       .  A
C521        H526   1.083       .  S
C522        C523   1.411       .  A
C523        C524   1.398       .  A
C523        F527   1.357       .  S
C524        H528   1.083       .  S
C529        C530   1.403       .  A
C529        C534   1.397       .  A
C529        H539   1.083       .  S
C530        C535   1.477       .  S
C530        C531   1.405       .  A
C531        C532   1.396       .  A
C531        F536   1.358       .  S
C532        C533   1.405       .  A
C532        H537   1.083       .  S
C533        C534   1.407       .  A
C534        F538   1.357       .  S
C535        C540   1.406       .  A
C535        C544   1.403       .  A
C540        C541   1.396       .  A
C540        F545   1.358       .  S
C541        C542   1.404       .  A
C541        H546   1.083       .  S
C542        C543   1.406       .  A
C543        C544   1.396       .  A
C543        F547   1.358       .  S
C544        H548   1.083       .  S
C549        C550   1.403       .  A
C549        C554   1.396       .  A
C549        H559   1.083       .  S
C550        C555   1.481       .  S
C550        C551   1.408       .  A
C551        C552   1.399       .  A
C551        F556   1.358       .  S
C552        C553   1.404       .  A
C552        H557   1.083       .  S
C553        C554   1.408       .  A
C554        F558   1.358       .  S
C555        C560   1.407       .  A
C555        C564   1.400       .  A
C560        C561   1.400       .  A
C560        F565   1.357       .  S
C561        C562   1.407       .  A
C561        H566   1.082       .  S
C562        C563   1.413       .  A
C563        C564   1.395       .  A
C563        F567   1.356       .  S
C564        H568   1.083       .  S
C569        C570   1.402       .  A
C569        C574   1.391       .  A
C569        H579   1.083       .  S
C570        C575   1.482       .  S
C570        C571   1.408       .  A
C571        C572   1.399       .  A
C571        F576   1.357       .  S
C572        C573   1.407       .  A
C572        H577   1.083       .  S
C573        C574   1.410       .  A
C574        F578   1.358       .  S
C575        C580   1.410       .  A
C575        C584   1.405       .  A
C580        C581   1.395       .  A
C580        F585   1.358       .  S
C581        C582   1.399       .  A
C581        H586   1.083       .  S
C582        C583   1.405       .  A
C583        C584   1.398       .  A
C583        F587   1.358       .  S
C584        H588   1.082       .  S
C589        C590   1.402       .  A
C589        C594   1.394       .  A
C589        H599   1.082       .  S
C590        C595   1.483       .  S
C590        C591   1.407       .  A
C591        C592   1.402       .  A
C591        F596   1.357       .  S
C592        C593   1.407       .  A
C592        H597   1.082       .  S
C593        C594   1.409       .  A
C594        F598   1.358       .  S
C595        C600   1.405       .  A
C595        C604   1.403       .  A
C600        C601   1.398       .  A
C600        F605   1.358       .  S
C601        C602   1.408       .  A
C601        H606   1.082       .  S
C602        C603   1.411       .  A
C603        C604   1.400       .  A
C603        F607   1.357       .  S
C604        H608   1.082       .  S
C609        C610   1.401       .  A
C609        C614   1.398       .  A
C609        H619   1.083       .  S
C610        C615   1.477       .  S
C610        C611   1.403       .  A
C611        C612   1.397       .  A
C611        F616   1.357       .  S
C612        C613   1.408       .  A
C612        H617   1.083       .  S
C613        C614   1.413       .  A
C614        F618   1.357       .  S
C615        C620   1.404       .  A
C615        C624   1.402       .  A
C620        C621   1.397       .  A
C620        F625   1.358       .  S
C621        C622   1.406       .  A
C621        H626   1.083       .  S
C622        C623   1.410       .  A
C623        C624   1.399       .  A
C623        F627   1.357       .  S
C624        H628   1.083       .  S
C629        C630   1.405       .  A
C629        C634   1.398       .  A
C629        H639   1.082       .  S
C630        C635   1.483       .  S
C630        C631   1.407       .  A
C631        C632   1.394       .  A
C631        F636   1.358       .  S
C632        C633   1.405       .  A
C632        H637   1.083       .  S
C633        C634   1.408       .  A
C634        F638   1.357       .  S
C635        C640   1.406       .  A
C635        C644   1.405       .  A
C640        C641   1.396       .  A
C640        F645   1.358       .  S
C641        C642   1.406       .  A
C641        H646   1.082       .  S
C642        C643   1.410       .  A
C643        C644   1.398       .  A
C643        F647   1.357       .  S
C644        H648   1.083       .  S
C649        C650   1.400       .  A
C649        C654   1.395       .  A
C649        H659   1.083       .  S
C650        C655   1.466       .  S
C650        C651   1.399       .  A
C651        C652   1.395       .  A
C651        F656   1.357       .  S
C652        C653   1.409       .  A
C652        H657   1.082       .  S
C653        C654   1.409       .  A
C654        F658   1.357       .  S
C655        C660   1.400       .  A
C655        C664   1.398       .  A
C660        C661   1.395       .  A
C660        F665   1.358       .  S
C661        C662   1.409       .  A
C661        H666   1.082       .  S
C662        C663   1.413       .  A
C663        C664   1.396       .  A
C663        F667   1.357       .  S
C664        H668   1.083       .  S
C669        C670   1.406       .  A
C669        C674   1.401       .  A
C669        H679   1.083       .  S
C670        C675   1.481       .  S
C670        C671   1.406       .  A
C671        C672   1.395       .  A
C671        F676   1.358       .  S
C672        C673   1.403       .  A
C672        H677   1.083       .  S
C673        C674   1.405       .  A
C674        F678   1.357       .  S
C675        C680   1.405       .  A
C675        C684   1.403       .  A
C680        C681   1.399       .  A
C680        F685   1.357       .  S
C681        C682   1.408       .  A
C681        H686   1.083       .  S
C682        C683   1.411       .  A
C683        C684   1.398       .  A
C683        F687   1.357       .  S
C684        H688   1.083       .  S
C689        C690   1.401       .  A
C689        C694   1.395       .  A
C689        H699   1.083       .  S
C690        C695   1.475       .  S
C690        C691   1.403       .  A
C691        C692   1.399       .  A
C691        F696   1.357       .  S
C692        C693   1.408       .  A
C692        H697   1.083       .  S
C693        C694   1.412       .  A
C694        F698   1.358       .  S
C695        C700   1.402       .  A
C695        C704   1.403       .  A
C700        C701   1.394       .  A
C700        F705   1.358       .  S
C701        C702   1.407       .  A
C701        H706   1.083       .  S
C702        C703   1.410       .  A
C703        C704   1.400       .  A
C703        F707   1.357       .  S
C704        H708   1.083       .  S
C709        C710   1.401       .  A
C709        C714   1.397       .  A
C709        H719   1.083       .  S
C710        C715   1.476       .  S
C710        C711   1.405       .  A
C711        C712   1.399       .  A
C711        F716   1.357       .  S
C712        C713   1.406       .  A
C712        H717   1.083       .  S
C713        C714   1.410       .  A
C714        F718   1.358       .  S
C715        C720   1.402       .  A
C715        C724   1.401       .  A
C720        C721   1.398       .  A
C720        F725   1.357       .  S
C721        C722   1.409       .  A
C721        H726   1.082       .  S
C722        C723   1.413       .  A
C723        C724   1.399       .  A
C723        F727   1.357       .  S
C724        H728   1.083       .  S
C729        C730   1.402       .  A
C729        C734   1.398       .  A
C729        H739   1.082       .  S
C730        C735   1.473       .  S
C730        C731   1.402       .  A
C731        C732   1.395       .  A
C731        F736   1.358       .  S
C732        C733   1.408       .  A
C732        H737   1.082       .  S
C733        C734   1.410       .  A
C734        F738   1.357       .  S
C735        C740   1.402       .  A
C735        C744   1.400       .  A
C740        C741   1.397       .  A
C740        F745   1.357       .  S
C741        C742   1.408       .  A
C741        H746   1.082       .  S
C742        C743   1.413       .  A
C743        C744   1.397       .  A
C743        F747   1.358       .  S
C744        H748   1.082       .  S
C749        C750   1.403       .  A
C749        C754   1.396       .  A
C749        H759   1.083       .  S
C750        C755   1.481       .  S
C750        C751   1.407       .  A
C751        C752   1.395       .  A
C751        F756   1.358       .  S
C752        C753   1.405       .  A
C752        H757   1.083       .  S
C753        C754   1.411       .  A
C754        F758   1.357       .  S
C755        C760   1.408       .  A
C755        C764   1.404       .  A
C760        C761   1.397       .  A
C760        F765   1.357       .  S
C761        C762   1.403       .  A
C761        H766   1.083       .  S
C762        C763   1.407       .  A
C763        C764   1.394       .  A
C763        F767   1.358       .  S
C764        H768   1.083       .  S
C769        C770   1.403       .  A
C769        C774   1.398       .  A
C769        H779   1.083       .  S
C770        C775   1.474       .  S
C770        C771   1.403       .  A
C771        C772   1.396       .  A
C771        F776   1.358       .  S
C772        C773   1.407       .  A
C772        H777   1.083       .  S
C773        C774   1.408       .  A
C774        F778   1.357       .  S
C775        C780   1.403       .  A
C775        C784   1.400       .  A
C780        C781   1.399       .  A
C780        F785   1.358       .  S
C781        C782   1.410       .  A
C781        H786   1.083       .  S
C782        C783   1.410       .  A
C783        C784   1.395       .  A
C783        F787   1.356       .  S
C784        H788   1.083       .  S
C789        C790   1.402       .  A
C789        C794   1.396       .  A
C789        H799   1.083       .  S
C790        C795   1.479       .  S
C790        C791   1.404       .  A
C791        C792   1.401       .  A
C791        F796   1.357       .  S
C792        C793   1.408       .  A
C792        H797   1.082       .  S
C793        C794   1.411       .  A
C794        F798   1.358       .  S
C795        C800   1.403       .  A
C795        C804   1.403       .  A
C800        C801   1.394       .  A
C800        F805   1.358       .  S
C801        C802   1.408       .  A
C801        H806   1.082       .  S
C802        C803   1.412       .  A
C803        C804   1.400       .  A
C803        F807   1.356       .  S
C804        H808   1.083       .  S
C809        C810   1.403       .  A
C809        C814   1.395       .  A
C809        H819   1.083       .  S
C810        C815   1.477       .  S
C810        C811   1.405       .  A
C811        C812   1.395       .  A
C811        F816   1.358       .  S
C812        C813   1.405       .  A
C812        H817   1.083       .  S
C813        C814   1.408       .  A
C814        F818   1.357       .  S
C815        C820   1.405       .  A
C815        C824   1.402       .  A
C820        C821   1.396       .  A
C820        F825   1.358       .  S
C821        C822   1.406       .  A
C821        H826   1.083       .  S
C822        C823   1.410       .  A
C823        C824   1.394       .  A
C823        F827   1.357       .  S
C824        H828   1.083       .  S
C829        C830   1.399       .  A
C829        C834   1.395       .  A
C829        H839   1.083       .  S
C830        C835   1.469       .  S
C830        C831   1.402       .  A
C831        C832   1.396       .  A
C831        F836   1.358       .  S
C832        C833   1.407       .  A
C832        H837   1.083       .  S
C833        C834   1.413       .  A
C834        F838   1.357       .  S
C835        C840   1.404       .  A
C835        C844   1.399       .  A
C840        C841   1.398       .  A
C840        F845   1.357       .  S
C841        C842   1.405       .  A
C841        H846   1.083       .  S
C842        C843   1.408       .  A
C843        C844   1.393       .  A
C843        F847   1.358       .  S
C844        H848   1.083       .  S
C849        C850   1.402       .  A
C849        C854   1.395       .  A
C849        H859   1.083       .  S
C850        C855   1.473       .  S
C850        C851   1.405       .  A
C851        C852   1.396       .  A
C851        F856   1.358       .  S
C852        C853   1.404       .  A
C852        H857   1.083       .  S
C853        C854   1.407       .  A
C854        F858   1.357       .  S
C855        C860   1.405       .  A
C855        C864   1.402       .  A
C860        C861   1.394       .  A
C860        F865   1.358       .  S
C861        C862   1.404       .  A
C861        H866   1.083       .  S
C862        C863   1.407       .  A
C863        C864   1.397       .  A
C863        F867   1.357       .  S
C864        H868   1.083       .  S
C869        C870   1.405       .  A
C869        C874   1.398       .  A
C869        H879   1.083       .  S
C870        C875   1.488       .  S
C870        C871   1.409       .  A
C871        C872   1.399       .  A
C871        F876   1.357       .  S
C872        C873   1.406       .  A
C872        H877   1.083       .  S
C873        C874   1.408       .  A
C874        F878   1.357       .  S
C875        C880   1.409       .  A
C875        C884   1.405       .  A
C880        C881   1.398       .  A
C880        F885   1.357       .  S
C881        C882   1.404       .  A
C881        H886   1.083       .  S
C882        C883   1.411       .  A
C883        C884   1.399       .  A
C883        F887   1.358       .  S
C884        H888   1.083       .  S
C889        C890   1.403       .  A
C889        C894   1.396       .  A
C889        H899   1.082       .  S
C890        C895   1.489       .  S
C890        C891   1.408       .  A
C891        C892   1.403       .  A
C891        F896   1.357       .  S
C892        C893   1.408       .  A
C892        H897   1.082       .  S
C893        C894   1.411       .  A
C894        F898   1.357       .  S
C895        C900   1.408       .  A
C895        C904   1.405       .  A
C900        C901   1.398       .  A
C900        F905   1.358       .  S
C901        C902   1.406       .  A
C901        H906   1.082       .  S
C902        C903   1.411       .  A
C903        C904   1.401       .  A
C903        F907   1.357       .  S
C904        H908   1.082       .  S
C909        C910   1.406       .  A
C909        C914   1.401       .  A
C909        H919   1.083       .  S
C910        C915   1.484       .  S
C910        C911   1.407       .  A
C911        C912   1.393       .  A
C911        F916   1.358       .  S
C912        C913   1.404       .  A
C912        H917   1.083       .  S
C913        C914   1.408       .  A
C914        F918   1.357       .  S
C915        C920   1.407       .  A
C915        C924   1.404       .  A
C920        C921   1.399       .  A
C920        F925   1.357       .  S
C921        C922   1.407       .  A
C921        H926   1.083       .  S
C922        C923   1.410       .  A
C923        C924   1.395       .  A
C923        F927   1.358       .  S
C924        H928   1.083       .  S
C929        C930   1.405       .  A
C929        C934   1.400       .  A
C929        H939   1.083       .  S
C930        C935   1.486       .  S
C930        C931   1.407       .  A
C931        C932   1.398       .  A
C931        F936   1.357       .  S
C932        C933   1.407       .  A
C932        H937   1.083       .  S
C933        C934   1.411       .  A
C934        F938   1.357       .  S
C935        C940   1.409       .  A
C935        C944   1.406       .  A
C940        C941   1.397       .  A
C940        F945   1.357       .  S
C941        C942   1.402       .  A
C941        H946   1.083       .  S
C942        C943   1.406       .  A
C943        C944   1.400       .  A
C943        F947   1.358       .  S
C944        H948   1.083       .  S
C949        C950   1.405       .  A
C949        C954   1.398       .  A
C949        H959   1.083       .  S
C950        C955   1.490       .  S
C950        C951   1.408       .  A
C951        C952   1.400       .  A
C951        F956   1.357       .  S
C952        C953   1.407       .  A
C952        H957   1.083       .  S
C953        C954   1.410       .  A
C954        F958   1.357       .  S
C955        C960   1.409       .  A
C955        C964   1.407       .  A
C960        C961   1.397   1_455  A
C960        F965   1.357       .  S
C961        C962   1.402       .  A
C961        H966   1.083       .  S
C962        C963   1.406   1_655  A
C963        C964   1.402       .  A
C963        F967   1.358   1_455  S
C964        H968   1.083       .  S
C969        C970   1.400       .  A
C969        C974   1.396       .  A
C969        H979   1.083       .  S
C970        C975   1.479       .  S
C970        C971   1.405       .  A
C971        C972   1.403       .  A
C971        F976   1.357       .  S
C972        C973   1.407       .  A
C972        H977   1.083       .  S
C973        C974   1.411       .  A
C974        F978   1.357       .  S
C975        C980   1.403       .  A
C975        C984   1.402       .  A
C980        C981   1.396       .  A
C980        F985   1.358       .  S
C981        C982   1.407       .  A
C981        H986   1.082       .  S
C982        C983   1.415       .  A
C983        C984   1.403       .  A
C983        F987   1.357       .  S
C984        H988   1.083       .  S
C989        C990   1.402       .  A
C989        C994   1.397   1_455  A
C989        H999   1.083       .  S
C990        C995   1.477       .  S
C990        C991   1.404       .  A
C991        C992   1.396       .  A
C991        F996   1.358       .  S
C992        C993   1.408   1_455  A
C992        H997   1.083       .  S
C993        C994   1.411       .  A
C994        F998   1.357       .  S
C995       C1000   1.404       .  A
C995       C1004   1.402       .  A
C1000      C1001   1.396       .  A
C1000      F1005   1.357       .  S
C1001      C1002   1.407       .  A
C1001      H1006   1.083       .  S
C1002      C1003   1.411       .  A
C1003      C1004   1.396       .  A
C1003      F1007   1.358       .  S
C1004      H1008   1.083       .  S
C1009      C1010   1.403       .  A
C1009      C1014   1.399       .  A
C1009      H1019   1.083       .  S
C1010      C1015   1.476       .  S
C1010      C1011   1.403       .  A
C1011      C1012   1.395       .  A
C1011      F1016   1.358       .  S
C1012      C1013   1.407       .  A
C1012      H1017   1.082       .  S
C1013      C1014   1.410       .  A
C1014      F1018   1.357       .  S
C1015      C1020   1.405       .  A
C1015      C1024   1.402       .  A
C1020      C1021   1.399       .  A
C1020      F1025   1.357       .  S
C1021      C1022   1.407       .  A
C1021      H1026   1.083       .  S
C1022      C1023   1.408       .  A
C1023      C1024   1.394       .  A
C1023      F1027   1.358       .  S
C1024      H1028   1.083       .  S
C1029      C1030   1.405       .  A
C1029      C1034   1.398       .  A
C1029      H1039   1.083       .  S
C1030      C1035   1.487       .  S
C1030      C1031   1.409       .  A
C1031      C1032   1.398       .  A
C1031      F1036   1.358       .  S
C1032      C1033   1.405       .  A
C1032      H1037   1.083       .  S
C1033      C1034   1.408       .  A
C1034      F1038   1.357       .  S
C1035      C1040   1.408       .  A
C1035      C1044   1.405       .  A
C1040      C1041   1.400       .  A
C1040      F1045   1.357       .  S
C1041      C1042   1.406       .  A
C1041      H1046   1.083       .  S
C1042      C1043   1.409       .  A
C1043      C1044   1.396       .  A
C1043      F1047   1.357       .  S
C1044      H1048   1.083       .  S
C1049      C1050   1.402       .  A
C1049      C1054   1.399       .  A
C1049      H1059   1.083       .  S
C1050      C1055   1.473       .  S
C1050      C1051   1.401       .  A
C1051      C1052   1.393       .  A
C1051      F1056   1.358       .  S
C1052      C1053   1.407       .  A
C1052      H1057   1.082       .  S
C1053      C1054   1.412       .  A
C1054      F1058   1.357       .  S
C1055      C1060   1.404       .  A
C1055      C1064   1.402       .  A
C1060      C1061   1.397       .  A
C1060      F1065   1.358       .  S
C1061      C1062   1.404       .  A
C1061      H1066   1.083       .  S
C1062      C1063   1.407       .  A
C1063      C1064   1.396       .  A
C1063      F1067   1.358       .  S
C1064      H1068   1.083       .  S
C1069      C1070   1.405       .  A
C1069      C1074   1.397       .  A
C1069      H1079   1.083       .  S
C1070      C1075   1.481       .  S
C1070      C1071   1.405       .  A
C1071      C1072   1.395       .  A
C1071      F1076   1.358       .  S
C1072      C1073   1.406       .  A
C1072      H1077   1.083       .  S
C1073      C1074   1.408       .  A
C1074      F1078   1.357       .  S
C1075      C1080   1.407       .  A
C1075      C1084   1.406       .  A
C1080      C1081   1.397       .  A
C1080      F1085   1.358       .  S
C1081      C1082   1.404       .  A
C1081      H1086   1.083       .  S
C1082      C1083   1.405       .  A
C1083      C1084   1.396       .  A
C1083      F1087   1.358       .  S
C1084      H1088   1.083       .  S
C1089      C1090   1.406       .  A
C1089      C1094   1.400       .  A
C1089      H1099   1.083       .  S
C1090      C1095   1.489       .  S
C1090      C1091   1.407       .  A
C1091      C1092   1.397       .  A
C1091      F1096   1.357       .  S
C1092      C1093   1.406       .  A
C1092      H1097   1.083       .  S
C1093      C1094   1.409       .  A
C1094      F1098   1.358       .  S
C1095      C1100   1.407       .  A
C1095      C1104   1.406       .  A
C1100      C1101   1.398       .  A
C1100      F1105   1.358       .  S
C1101      C1102   1.407       .  A
C1101      H1106   1.083       .  S
C1102      C1103   1.409       .  A
C1103      C1104   1.399       .  A
C1103      F1107   1.357       .  S
C1104      H1108   1.083       .  S
C1109      C1110   1.407       .  A
C1109      C1114   1.398       .  A
C1109      H1119   1.082       .  S
C1110      C1115   1.489       .  S
C1110      C1111   1.408       .  A
C1111      C1112   1.399       .  A
C1111      F1116   1.357       .  S
C1112      C1113   1.405       .  A
C1112      H1117   1.083       .  S
C1113      C1114   1.406       .  A
C1114      F1118   1.357       .  S
C1115      C1120   1.407       .  A
C1115      C1124   1.407       .  A
C1120      C1121   1.397       .  A
C1120      F1125   1.358       .  S
C1121      C1122   1.407       .  A
C1121      H1126   1.082       .  S
C1122      C1123   1.409       .  A
C1123      C1124   1.401       .  A
C1123      F1127   1.357       .  S
C1124      H1128   1.082       .  S
C1129      C1130   1.401       .  A
C1129      C1134   1.399       .  A
C1129      H1139   1.083       .  S
C1130      C1135   1.473       .  S
C1130      C1131   1.401       .  A
C1131      C1132   1.397       .  A
C1131      F1136   1.358       .  S
C1132      C1133   1.409       .  A
C1132      H1137   1.083       .  S
C1133      C1134   1.411       .  A
C1134      F1138   1.357       .  S
C1135      C1140   1.402       .  A
C1135      C1144   1.400       .  A
C1140      C1141   1.400       .  A
C1140      F1145   1.358       .  S
C1141      C1142   1.410       .  A
C1141      H1146   1.083       .  S
C1142      C1143   1.411       .  A
C1143      C1144   1.397       .  A
C1143      F1147   1.357       .  S
C1144      H1148   1.083       .  S
C1149      C1150   1.404       .  A
C1149      C1154   1.398       .  A
C1149      H1159   1.083       .  S
C1150      C1155   1.485       .  S
C1150      C1151   1.406       .  A
C1151      C1152   1.397       .  A
C1151      F1156   1.358       .  S
C1152      C1153   1.407       .  A
C1152      H1157   1.083       .  S
C1153      C1154   1.411       .  A
C1154      F1158   1.357       .  S
C1155      C1160   1.408       .  A
C1155      C1164   1.405       .  A
C1160      C1161   1.398       .  A
C1160      F1165   1.358       .  S
C1161      C1162   1.405       .  A
C1161      H1166   1.083       .  S
C1162      C1163   1.406       .  A
C1163      C1164   1.398       .  A
C1163      F1167   1.357       .  S
C1164      H1168   1.083       .  S
C1169      C1170   1.405       .  A
C1169      C1174   1.398       .  A
C1169      H1179   1.082       .  S
C1170      C1175   1.487   1_556  S
C1170      C1171   1.408       .  A
C1171      C1172   1.398       .  A
C1171      F1176   1.357       .  S
C1172      C1173   1.404       .  A
C1172      H1177   1.082       .  S
C1173      C1174   1.409       .  A
C1174      F1178   1.358       .  S
C1175      C1180   1.407       .  A
C1175      C1184   1.405       .  A
C1180      C1181   1.399       .  A
C1180      F1185   1.358       .  S
C1181      C1182   1.408       .  A
C1181      H1186   1.082       .  S
C1182      C1183   1.409       .  A
C1183      C1184   1.397       .  A
C1183      F1187   1.357       .  S
C1184      H1188   1.082       .  S
C1189      C1190   1.406       .  A
C1189      C1194   1.400       .  A
C1189      H1199   1.082       .  S
C1190      C1195   1.482       .  S
C1190      C1191   1.405       .  A
C1191      C1192   1.393       .  A
C1191      F1196   1.358       .  S
C1192      C1193   1.406       .  A
C1192      H1197   1.082       .  S
C1193      C1194   1.410       .  A
C1194      F1198   1.357       .  S
C1195      C1200   1.407       .  A
C1195      C1204   1.405       .  A
C1200      C1201   1.398       .  A
C1200      F1205   1.357       .  S
C1201      C1202   1.404       .  A
C1201      H1206   1.082       .  S
C1202      C1203   1.405       .  A
C1203      C1204   1.395       .  A
C1203      F1207   1.358       .  S
C1204      H1208   1.082       .  S
C1209      C1210   1.406       .  A
C1209      C1214   1.399   1_455  A
C1209      H1219   1.082       .  S
C1210      C1215   1.489       .  S
C1210      C1211   1.408   1_455  A
C1211      C1212   1.397       .  A
C1211      F1216   1.357       .  S
C1212      C1213   1.406       .  A
C1212      H1217   1.082       .  S
C1213      C1214   1.410       .  A
C1214      F1218   1.357       .  S
C1215      C1220   1.409       .  A
C1215      C1224   1.407       .  A
C1220      C1221   1.397       .  A
C1220      F1225   1.357       .  S
C1221      C1222   1.405       .  A
C1221      H1226   1.083       .  S
C1222      C1223   1.408       .  A
C1223      C1224   1.398       .  A
C1223      F1227   1.358       .  S
C1224      H1228   1.082       .  S
C1229      C1230   1.407       .  A
C1229      C1234   1.399       .  A
C1229      H1239   1.082       .  S
C1230      C1235   1.493   1_554  S
C1230      C1231   1.409       .  A
C1231      C1232   1.400       .  A
C1231      F1236   1.357       .  S
C1232      C1233   1.405       .  A
C1232      H1237   1.083       .  S
C1233      C1234   1.407       .  A
C1234      F1238   1.358       .  S
C1235      C1240   1.408       .  A
C1235      C1244   1.408       .  A
C1240      C1241   1.397       .  A
C1240      F1245   1.358       .  S
C1241      C1242   1.408       .  A
C1241      H1246   1.083       .  S
C1242      C1243   1.409       .  A
C1243      C1244   1.402       .  A
C1243      F1247   1.357       .  S
C1244      H1248   1.082       .  S
C1249      C1250   1.405       .  A
C1249      C1254   1.400       .  A
C1249      H1259   1.083       .  S
C1250      C1255   1.490       .  S
C1250      C1251   1.409       .  A
C1251      C1252   1.400       .  A
C1251      F1256   1.357       .  S
C1252      C1253   1.405       .  A
C1252      H1257   1.083       .  S
C1253      C1254   1.409       .  A
C1254      F1258   1.357       .  S
C1255      C1260   1.409       .  A
C1255      C1264   1.406       .  A
C1260      C1261   1.400       .  A
C1260      F1265   1.357       .  S
C1261      C1262   1.405       .  A
C1261      H1266   1.083       .  S
C1262      C1263   1.408       .  A
C1263      C1264   1.400       .  A
C1263      F1267   1.357       .  S
C1264      H1268   1.083       .  S
C1269      C1270   1.401       .  A
C1269      C1274   1.401   1_455  A
C1269      H1279   1.083       .  S
C1270      C1275   1.474       .  S
C1270      C1271   1.400       .  A
C1271      C1272   1.397       .  A
C1271      F1276   1.358       .  S
C1272      C1273   1.410   1_455  A
C1272      H1277   1.082       .  S
C1273      C1274   1.414       .  A
C1274      F1278   1.357       .  S
C1275      C1280   1.402       .  A
C1275      C1284   1.400       .  A
C1280      C1281   1.400       .  A
C1280      F1285   1.357       .  S
C1281      C1282   1.408       .  A
C1281      H1286   1.082       .  S
C1282      C1283   1.412       .  A
C1283      C1284   1.399       .  A
C1283      F1287   1.357       .  S
C1284      H1288   1.083       .  S
C1289      C1290   1.402       .  A
C1289      C1294   1.397       .  A
C1289      H1299   1.083       .  S
C1290      C1295   1.479       .  S
C1290      C1291   1.406   1_565  A
C1291      C1292   1.398       .  A
C1291      F1296   1.358       .  S
C1292      C1293   1.406   1_545  A
C1292      H1297   1.083       .  S
C1293      C1294   1.410       .  A
C1294      F1298   1.357       .  S
C1295      C1300   1.406       .  A
C1295      C1304   1.403   1_565  A
C1300      C1301   1.398       .  A
C1300      F1305   1.358       .  S
C1301      C1302   1.406       .  A
C1301      H1306   1.083       .  S
C1302      C1303   1.408   1_565  A
C1303      C1304   1.396       .  A
C1303      F1307   1.358       .  S
C1304      H1308   1.083       .  S
C1309      C1310   1.402       .  A
C1309      C1314   1.395       .  A
C1309      H1319   1.083       .  S
C1310      C1315   1.480       .  S
C1310      C1311   1.405       .  A
C1311      C1312   1.399       .  A
C1311      F1316   1.357       .  S
C1312      C1313   1.408       .  A
C1312      H1317   1.083       .  S
C1313      C1314   1.411       .  A
C1314      F1318   1.357       .  S
C1315      C1320   1.406       .  A
C1315      C1324   1.404       .  A
C1320      C1321   1.396       .  A
C1320      F1325   1.358       .  S
C1321      C1322   1.405       .  A
C1321      H1326   1.083       .  S
C1322      C1323   1.407       .  A
C1323      C1324   1.398       .  A
C1323      F1327   1.357       .  S
C1324      H1328   1.083       .  S
C1329      C1330   1.406       .  A
C1329      C1334   1.399       .  A
C1329      H1339   1.083       .  S
C1330      C1335   1.490       .  S
C1330      C1331   1.408       .  A
C1331      C1332   1.399       .  A
C1331      F1336   1.358       .  S
C1332      C1333   1.406       .  A
C1332      H1337   1.083       .  S
C1333      C1334   1.409       .  A
C1334      F1338   1.357       .  S
C1335      C1340   1.408       .  A
C1335      C1344   1.405       .  A
C1340      C1341   1.398       .  A
C1340      F1345   1.357       .  S
C1341      C1342   1.407       .  A
C1341      H1346   1.083       .  S
C1342      C1343   1.411       .  A
C1343      C1344   1.399       .  A
C1343      F1347   1.357       .  S
C1344      H1348   1.083       .  S
C1349      C1350   1.404       .  A
C1349      C1354   1.399       .  A
C1349      H1359   1.083       .  S
C1350      C1355   1.485       .  S
C1350      C1351   1.407   1_565  A
C1351      C1352   1.397       .  A
C1351      F1356   1.357       .  S
C1352      C1353   1.406   1_545  A
C1352      H1357   1.083       .  S
C1353      C1354   1.411       .  A
C1354      F1358   1.357       .  S
C1355      C1360   1.407   1_565  A
C1355      C1364   1.405       .  A
C1360      C1361   1.397       .  A
C1360      F1365   1.357       .  S
C1361      C1362   1.405   1_645  A
C1361      H1366   1.083       .  S
C1362      C1363   1.409   1_455  A
C1363      C1364   1.399       .  A
C1363      F1367   1.357       .  S
C1364      H1368   1.083       .  S
C1369      C1370   1.405       .  A
C1369      C1374   1.398       .  A
C1369      H1379   1.083       .  S
C1370      C1375   1.484       .  S
C1370      C1371   1.407       .  A
C1371      C1372   1.398       .  A
C1371      F1376   1.357       .  S
C1372      C1373   1.405       .  A
C1372      H1377   1.083       .  S
C1373      C1374   1.407       .  A
C1374      F1378   1.357       .  S
C1375      C1380   1.406       .  A
C1375      C1384   1.406       .  A
C1380      C1381   1.396       .  A
C1380      F1385   1.357       .  S
C1381      C1382   1.406       .  A
C1381      H1386   1.083       .  S
C1382      C1383   1.407       .  A
C1383      C1384   1.399       .  A
C1383      F1387   1.358       .  S
C1384      H1388   1.083       .  S
C1389      C1390   1.404       .  A
C1389      C1394   1.398       .  A
C1389      H1399   1.083       .  S
C1390      C1395   1.483       .  S
C1390      C1391   1.407       .  A
C1391      C1392   1.400       .  A
C1391      F1396   1.358       .  S
C1392      C1393   1.405       .  A
C1392      H1397   1.083       .  S
C1393      C1394   1.407       .  A
C1394      F1398   1.357       .  S
C1395      C1400   1.405       .  A
C1395      C1404   1.403       .  A
C1400      C1401   1.399       .  A
C1400      F1405   1.358       .  S
C1401      C1402   1.408       .  A
C1401      H1406   1.083       .  S
C1402      C1403   1.411       .  A
C1403      C1404   1.399       .  A
C1403      F1407   1.357       .  S
C1404      H1408   1.083       .  S
C1409      C1410   1.404   1_544  A
C1409      C1414   1.394       .  A
C1409      H1419   1.083   1_545  S
C1410      C1415   1.485       .  S
C1410      C1411   1.407   1_565  A
C1411      C1412   1.400       .  A
C1411      F1416   1.358       .  S
C1412      C1413   1.407       .  A
C1412      H1417   1.083       .  S
C1413      C1414   1.408   1_556  A
C1414      F1418   1.357       .  S
C1415      C1420   1.407       .  A
C1415      C1424   1.405   1_556  A
C1420      C1421   1.396       .  A
C1420      F1425   1.357       .  S
C1421      C1422   1.407       .  A
C1421      H1426   1.083       .  S
C1422      C1423   1.409   1_556  A
C1423      C1424   1.397       .  A
C1423      F1427   1.357       .  S
C1424      H1428   1.083       .  S
C1429      C1430   1.407       .  A
C1429      C1434   1.399       .  A
C1429      H1439   1.082       .  S
C1430      C1435   1.488       .  S
C1430      C1431   1.409       .  A
C1431      C1432   1.396       .  A
C1431      F1436   1.358       .  S
C1432      C1433   1.403       .  A
C1432      H1437   1.083       .  S
C1433      C1434   1.406       .  A
C1434      F1438   1.357       .  S
C1435      C1440   1.407       .  A
C1435      C1444   1.406       .  A
C1440      C1441   1.397       .  A
C1440      F1445   1.357       .  S
C1441      C1442   1.407       .  A
C1441      H1446   1.082       .  S
C1442      C1443   1.410       .  A
C1443      C1444   1.398       .  A
C1443      F1447   1.357       .  S
C1444      H1448   1.082       .  S
C1449      C1450   1.403       .  A
C1449      C1454   1.398       .  A
C1449      H1459   1.083       .  S
C1450      C1455   1.481       .  S
C1450      C1451   1.406       .  A
C1451      C1452   1.399       .  A
C1451      F1456   1.358       .  S
C1452      C1453   1.407       .  A
C1452      H1457   1.083       .  S
C1453      C1454   1.410       .  A
C1454      F1458   1.357       .  S
C1455      C1460   1.406       .  A
C1455      C1464   1.402       .  A
C1460      C1461   1.399       .  A
C1460      F1465   1.358       .  S
C1461      C1462   1.407       .  A
C1461      H1466   1.083       .  S
C1462      C1463   1.410       .  A
C1463      C1464   1.397       .  A
C1463      F1467   1.357       .  S
C1464      H1468   1.083       .  S
C1469      C1470   1.404       .  A
C1469      C1474   1.398       .  A
C1469      H1479   1.083       .  S
C1470      C1475   1.480   1_545  S
C1470      C1471   1.405   1_556  A
C1471      C1472   1.395       .  A
C1471      F1476   1.358       .  S
C1472      C1473   1.406   1_554  A
C1472      H1477   1.083       .  S
C1473      C1474   1.410       .  A
C1474      F1478   1.357       .  S
C1475      C1480   1.406       .  A
C1475      C1484   1.404   1_556  A
C1480      C1481   1.395       .  A
C1480      F1485   1.358       .  S
C1481      C1482   1.405       .  A
C1481      H1486   1.083       .  S
C1482      C1483   1.408   1_556  A
C1483      C1484   1.397       .  A
C1483      F1487   1.357       .  S
C1484      H1488   1.083       .  S
C1489      C1490   1.402       .  A
C1489      C1494   1.394       .  A
C1489      H1499   1.083       .  S
C1490      C1495   1.479       .  S
C1490      C1491   1.406       .  A
C1491      C1492   1.401       .  A
C1491      F1496   1.357       .  S
C1492      C1493   1.406       .  A
C1492      H1497   1.083       .  S
C1493      C1494   1.407       .  A
C1494      F1498   1.358       .  S
C1495      C1500   1.404       .  A
C1495      C1504   1.403       .  A
C1500      C1501   1.396       .  A
C1500      F1505   1.358       .  S
C1501      C1502   1.407       .  A
C1501      H1506   1.083       .  S
C1502      C1503   1.411       .  A
C1503      C1504   1.400       .  A
C1503      F1507   1.357       .  S
C1504      H1508   1.083       .  S
C1509      C1510   1.401       .  A
C1509      C1514   1.397       .  A
C1509      H1519   1.083       .  S
C1510      C1515   1.471       .  S
C1510      C1511   1.402       .  A
C1511      C1512   1.395       .  A
C1511      F1516   1.358       .  S
C1512      C1513   1.408       .  A
C1512      H1517   1.083       .  S
C1513      C1514   1.410       .  A
C1514      F1518   1.357       .  S
C1515      C1520   1.403       .  A
C1515      C1524   1.400       .  A
C1520      C1521   1.394       .  A
C1520      F1525   1.358       .  S
C1521      C1522   1.406       .  A
C1521      H1526   1.083       .  S
C1522      C1523   1.412       .  A
C1523      C1524   1.397       .  A
C1523      F1527   1.357       .  S
C1524      H1528   1.083       .  S
