geometry optimzed in LAMMPS
_audit_creation_date              2020-11-30 
_audit_creation_method            'lammps2cif' 
_symmetry_space_group_name_H-M    'P1' 
_symmetry_Int_Tables_number       1 
_symmetry_cell_setting            triclinic 
loop_ 
_symmetry_equiv_pos_as_xyz 
  x,y,z 
_cell_length_a                    24.8335791 
_cell_length_b                    25.200538149013273 
_cell_length_c                    46.82303441430728 
_cell_angle_alpha                 89.9009846134867 
_cell_angle_beta                  90.60819929300644 
_cell_angle_gamma                 90.49794004451059 
loop_ 
_atom_site_label 
_atom_site_type_symbol 
_atom_site_fract_x 
_atom_site_fract_y 
_atom_site_fract_z 
_atom_site_charge 
C1          C  0.49956779  0.44737156  0.77187551     0.88600
C2          C  0.44827439  0.45666192  0.75376187    -0.51600
C3          C  0.47630205  0.00083367  0.73052893     0.11500
C4          C  0.52471028  0.03758544  0.73775399     0.22500
C5          C  0.04600387  0.45426676  0.75087357    -0.52300
C6          C  0.07517436  0.00344874  0.73286243     0.11600
C7          C  0.50421101  0.49597748  0.79140119    -0.51900
C8          C  0.02198325  0.04496813  0.77029597     0.12200
H9          H  0.41506690  0.42876056  0.75252245     0.16700
H10         H  0.52478757  0.07558386  0.72568102     0.02500
H11         H  0.07710300  0.42461500  0.74889160     0.17000
H12         H  0.50855137  0.49309137  0.81446947     0.16800
O13         O  0.19122273  0.49707667  0.61327659    -0.70800
O14         O  0.30457321  0.46514763  0.67182603    -0.71800
O15         O  0.19028114  0.46393603  0.67099865    -0.60400
O16         O  0.30380950  0.49831234  0.61390679    -0.68800
O17         O  0.32766928  0.08066294  0.62086322    -0.68400
O18         O  0.21553367  0.04599641  0.68008819    -0.59600
O19         O  0.33277074  0.04588874  0.67906300    -0.72100
O20         O  0.21399874  0.07970088  0.62170369    -0.70900
Cu21       Cu  0.24752545  0.47831497  0.64219294     1.04600
Cu22       Cu  0.27255096  0.06606429  0.65113331     1.04300
C23         C  0.19655349  0.04272050  0.60529422     0.95400
C24         C  0.35047522  0.99829989  0.68039090     0.94500
C25         C  0.19698380  0.99856591  0.68177996     0.86700
C26         C  0.34321717  0.04412640  0.60408585     0.92900
O27         O  0.29978054  0.47944778  0.39266626    -0.70800
O28         O  0.18376486  0.44831236  0.33487864    -0.71800
O29         O  0.29831436  0.45061859  0.33400658    -0.60400
O30         O  0.18682919  0.47753409  0.39345315    -0.68800
O31         O  0.20904845  0.08154185  0.37406795    -0.68400
O32         O  0.32236898  0.05018080  0.31479294    -0.59600
O33         O  0.20470475  0.04620453  0.31597866    -0.72100
O34         O  0.32282426  0.08511040  0.37307236    -0.70900
Cu35       Cu  0.24223593  0.46104598  0.36402154     1.04600
Cu36       Cu  0.26462457  0.06878489  0.34374433     1.04300
C37         C  0.34086945  0.04903726  0.38974818     0.95400
C38         C  0.18731303  0.99818313  0.31517708     0.94500
C39         C  0.34128688  0.00313100  0.31361526     0.86700
C40         C  0.19424131  0.04464892  0.39108779     0.92900
O41         O  0.03204536  0.05430378  0.97274512    -0.70800
O42         O  0.03237091  0.43787405  0.02848615    -0.71800
O43         O  0.02701621  0.43793711  0.96746800    -0.60400
O44         O  0.02940795  0.05306346  0.03383171    -0.68800
O45         O  0.44010765  0.04635139  0.03252968    -0.68400
O46         O  0.43759859  0.43887202  0.96913955    -0.59600
O47         O  0.44300490  0.43873731  0.03030581    -0.72100
O48         O  0.44271923  0.04777826  0.97134941    -0.70900
Cu49       Cu  0.03390481  0.49384385  0.99788291     1.04600
Cu50       Cu  0.43821824  0.49492579  0.99951493     1.04300
C51         C  0.98668882  0.06780702  0.96213228     0.95400
C52         C  0.98835072  0.42146243  0.03934455     0.94500
C53         C  0.98110040  0.42163456  0.95843540     0.86700
C54         C  0.98325353  0.06613210  0.04321480     0.92900
O55         O  0.45157075  0.30264966  0.11811686    -0.70800
O56         O  0.45570660  0.19573992  0.18193954    -0.71800
O57         O  0.46439878  0.30883126  0.17848746    -0.60400
O58         O  0.44426135  0.19066672  0.12099763    -0.68800
O59         O  0.03306383  0.18704557  0.11606984    -0.68400
O60         O  0.05299111  0.30022868  0.17537305    -0.59600
O61         O  0.04379819  0.18654321  0.17637661    -0.72100
O62         O  0.04060183  0.29879095  0.11458930    -0.70900
Cu63       Cu  0.45088319  0.24965404  0.15016825     1.04600
Cu64       Cu  0.04573739  0.24301698  0.14559708     1.04300
C65         C  0.99525048  0.31706219  0.10616755     0.95400
C66         C  0.99988322  0.17304033  0.18859282     0.94500
C67         C  0.01210492  0.32336778  0.18578907     0.86700
C68         C  0.98580915  0.17160123  0.10895487     0.92900
C69         C  0.98783237  0.44940211  0.23233196     0.88600
C70         C  0.03616193  0.45098056  0.25326461    -0.51600
C71         C  0.06118770  0.99706144  0.26498204     0.11500
C72         C  0.01500979  0.03441596  0.25550798     0.22500
C73         C  0.43838789  0.45544302  0.25133772    -0.52300
C74         C  0.46251553  0.00309447  0.26173183     0.11600
C75         C  0.99168710  0.50175039  0.21568301    -0.51900
C76         C  0.01903241  0.03598918  0.22260605     0.12200
H77         H  0.06663344  0.42060935  0.25415879     0.16700
H78         H  0.01699219  0.07415614  0.26570549     0.02500
H79         H  0.40480254  0.42763828  0.25051308     0.17000
H80         H  0.99223664  0.50376961  0.19250818     0.16800
O81         O  0.42669845  0.29349559  0.82288129    -0.70800
O82         O  0.43599050  0.18538059  0.88572297    -0.71800
O83         O  0.43128438  0.29687799  0.88362388    -0.60400
O84         O  0.43231095  0.17959542  0.82535788    -0.68800
O85         O  0.02136288  0.18569603  0.82306291    -0.68400
O86         O  0.02072259  0.30037787  0.88266967    -0.59600
O87         O  0.02536723  0.18864197  0.88391525    -0.72100
O88         O  0.01582328  0.30020542  0.82210112    -0.70900
Cu89       Cu  0.42846992  0.23871534  0.85423282     1.04600
Cu90       Cu  0.02396320  0.24388001  0.85267929     1.04300
C91         C  0.96945548  0.31551381  0.81338245     0.95400
C92         C  0.98201074  0.17079480  0.89498625     0.94500
C93         C  0.97606093  0.31573345  0.89285916     0.86700
C94         C  0.97707691  0.16301955  0.81570557     0.92900
O95         O  0.07649972  0.10604799  0.52891932    -0.70800
O96         O  0.46336762  0.11025737  0.46666610    -0.71800
O97         O  0.46294388  0.10853883  0.52815489    -0.60400
O98         O  0.07689844  0.10726975  0.46749785    -0.68800
O99         O  0.07383573  0.01907601  0.46731384    -0.68400
O100        O  0.46045407  0.02035135  0.52720574    -0.59600
O101        O  0.46097751  0.02206891  0.46624420    -0.72100
O102        O  0.07333060  0.01787999  0.52835157    -0.70900
Cu103      Cu  0.02003876  0.11122452  0.49783019     1.04600
Cu104      Cu  0.01704072  0.01682909  0.49726037     1.04300
C105        C  0.09154332  0.06126564  0.53883191     0.95400
C106        C  0.44555207  0.06663658  0.45625144     0.94500
C107        C  0.44497718  0.06429842  0.53761942     0.86700
C108        C  0.09207785  0.06279928  0.45746434     0.92900
C109        C  0.98160989  0.40182534  0.21259283    -0.14300
C110        C  0.02090982  0.36749574  0.20620138    -0.29500
H111        H  0.94285690  0.39746720  0.20179331     0.14700
H112        H  0.56128577  0.37310665  0.21469019     0.15300
C113        C  0.99912868  0.12942096  0.20976968    -0.14300
C114        C  0.02653649  0.08461821  0.20513697    -0.29500
H115        H  0.47035933  0.13096216  0.22705663     0.14700
H116        H  0.05039859  0.08135846  0.18589511     0.15300
C117        C  0.98468378  0.13463872  0.91865663    -0.11100
C118        C  0.98542341  0.10488004  0.93884747    -0.12700
C119        C  0.97829548  0.38427075  0.93539541    -0.11100
C120        C  0.97650656  0.35364974  0.91565901    -0.12700
C121        C  0.99295883  0.35368556  0.08256183    -0.11100
C122        C  0.99025654  0.38398084  0.06256870    -0.12700
C123        C  0.97997526  0.10284050  0.06656313    -0.11100
C124        C  0.98003955  0.13338670  0.08638346    -0.12700
C125        C  0.37856643  0.06208102  0.41217790    -0.11100
C126        C  0.40872306  0.06710382  0.43238775    -0.12700
C127        C  0.12882656  0.06141765  0.43406269    -0.11100
C128        C  0.15813131  0.05598660  0.41393929    -0.12700
C129        C  0.41842993  0.02261341  0.28054403    -0.14300
C130        C  0.38435725  0.98843156  0.29358653    -0.29500
H131        H  0.41573659  0.06484942  0.28472883     0.14700
H132        H  0.36545304  0.43542619  0.29318161     0.15300
C133        C  0.14233754  0.98157579  0.29601369    -0.14300
C134        C  0.10665476  0.01520693  0.28399104    -0.29500
H135        H  0.11301011  0.43107142  0.29479342     0.14700
H136        H  0.11024170  0.05737156  0.28842473     0.15300
C137        C  0.12842110  0.05933100  0.56264991    -0.11100
C138        C  0.15862107  0.05417083  0.58280333    -0.12700
C139        C  0.37903279  0.05672322  0.58117251    -0.11100
C140        C  0.40825307  0.06313427  0.56104394    -0.12700
C141        C  0.97710118  0.11518729  0.79737113    -0.14300
C142        C  0.02145987  0.09750329  0.78438257    -0.29500
H143        H  0.44007583  0.09196822  0.79579701     0.14700
H144        H  0.05846390  0.12077924  0.78479513     0.15300
C145        C  0.96406764  0.36034991  0.79304804    -0.14300
C146        C  0.00414089  0.39595226  0.78894802    -0.29500
H147        H  0.42459364  0.36639206  0.78373037     0.14700
H148        H  0.04220026  0.38992450  0.80010272     0.15300
C149        C  0.11998515  0.01981486  0.71359968    -0.14300
C150        C  0.15384627  0.98437386  0.70204241    -0.29500
H151        H  0.12346187  0.06144124  0.70781949     0.14700
H152        H  0.12098393  0.44274768  0.70956589     0.15300
C153        C  0.43140804  0.01757641  0.71101554    -0.14300
C154        C  0.39487080  0.98314596  0.70007100    -0.29500
H155        H  0.39946846  0.56369602  0.71529650     0.14700
H156        H  0.39908353  0.94103055  0.70418715     0.15300
C157        C  0.52466132  0.94868049  0.76646214     0.88600
C158        C  0.47706061  0.95381130  0.74540916    -0.51600
C159        C  0.44783509  0.50412374  0.73934135     0.11500
C160        C  0.49900595  0.53814718  0.74469368     0.22500
C161        C  0.07489470  0.95717954  0.74820289    -0.52300
C162        C  0.04650870  0.50190823  0.73663676     0.11600
C163        C  0.52178694  0.99842740  0.78532362    -0.51900
C164        C  0.00347107  0.54340114  0.77738079     0.12200
H165        H  0.44581754  0.92364242  0.74368886     0.16700
H166        H  0.49907179  0.57686609  0.73330863     0.02500
H167        H  0.10766923  0.92901686  0.74797251     0.17000
H168        H  0.52051117  0.99699423  0.80849284     0.16800
O169        O  0.21354135  0.99536512  0.60788388    -0.70800
O170        O  0.32974632  0.96205513  0.66466593    -0.71800
O171        O  0.21540813  0.96205700  0.66581122    -0.60400
O172        O  0.32637484  0.99642580  0.60684623    -0.68800
O173        O  0.30427964  0.58279531  0.62748233    -0.68400
O174        O  0.18843564  0.54788672  0.68517844    -0.59600
O175        O  0.30601706  0.54907642  0.68610066    -0.72100
O176        O  0.19050542  0.58155583  0.62685822    -0.70900
Cu177      Cu  0.27126026  0.97612414  0.63597095     1.04600
Cu178      Cu  0.24734823  0.56839308  0.65711326     1.04300
C179        C  0.17404141  0.54430800  0.61038656     0.95400
C180        C  0.32407543  0.50168364  0.68780533     0.94500
C181        C  0.17030123  0.50020275  0.68653217     0.86700
C182        C  0.32060771  0.54594571  0.61106451     0.92900
O183        O  0.32473038  0.00106002  0.38747784    -0.70800
O184        O  0.20866631  0.96283243  0.33111470    -0.71800
O185        O  0.32301991  0.96668114  0.32992129    -0.60400
O186        O  0.21208370  0.99761478  0.38864385    -0.68800
O187        O  0.18520039  0.56276277  0.38117529    -0.68400
O188        O  0.29859499  0.53575255  0.32178161    -0.59600
O189        O  0.18155207  0.53328509  0.32241006    -0.72100
O190        O  0.29867036  0.56484331  0.38070770    -0.70900
Cu191      Cu  0.26723383  0.97923680  0.35961317     1.04600
Cu192      Cu  0.24095630  0.55216851  0.35088691     1.04300
C193        C  0.31622956  0.52705216  0.39634012     0.95400
C194        C  0.16339964  0.48575508  0.32000909     0.94500
C195        C  0.31703077  0.48878355  0.31900113     0.86700
C196        C  0.16957889  0.52455352  0.39708720     0.92900
O197        O  0.02972392  0.54981322  0.96728363    -0.70800
O198        O  0.03792324  0.94169995  0.03291843    -0.71800
O199        O  0.03927354  0.94270118  0.97206983    -0.60400
O200        O  0.03410077  0.54973744  0.02850986    -0.68800
O201        O  0.44467325  0.55084572  0.02989612    -0.68400
O202        O  0.44992994  0.93618135  0.97121815    -0.59600
O203        O  0.44859617  0.93474053  0.03211241    -0.72100
O204        O  0.44032885  0.55096934  0.96851692    -0.70900
Cu205      Cu  0.03779370  0.99823347  0.00294996     1.04600
Cu206      Cu  0.44216642  0.99106465  0.00175307     1.04300
C207        C  0.98476021  0.56704794  0.95783127     0.95400
C208        C  0.99442269  0.92117430  0.04223492     0.94500
C209        C  0.99580595  0.92274907  0.96175933     0.86700
C210        C  0.99046739  0.56682359  0.03921079     0.92900
O211        O  0.46796956  0.79793120  0.12038377    -0.70800
O212        O  0.48413391  0.68496418  0.18016956    -0.71800
O213        O  0.48895686  0.79903553  0.17997070    -0.60400
O214        O  0.46456642  0.68607279  0.12010284    -0.68800
O215        O  0.05260792  0.68495149  0.11207908    -0.68400
O216        O  0.07686631  0.79615192  0.17219439    -0.59600
O217        O  0.07180178  0.68115726  0.17172570    -0.72100
O218        O  0.05612466  0.79650473  0.11264647    -0.70900
Cu219      Cu  0.47340936  0.74203566  0.15065893     1.04600
Cu220      Cu  0.06751418  0.73958745  0.14214053     1.04300
C221        C  0.00922642  0.81416613  0.10683715     0.95400
C222        C  0.02996126  0.66355704  0.18446700     0.94500
C223        C  0.03665366  0.81699469  0.18456288     0.86700
C224        C  0.00489695  0.66910313  0.10617395     0.92900
C225        C  0.01069575  0.94107806  0.23141799     0.88600
C226        C  0.05800159  0.94775212  0.25250534    -0.51600
C227        C  0.03813906  0.49553330  0.27011584     0.11500
C228        C  0.99075081  0.53372822  0.26467396     0.22500
C229        C  0.46061873  0.95469482  0.24858613    -0.52300
C230        C  0.43945848  0.49941167  0.26842766     0.11600
C231        C  0.01715539  0.98701525  0.21019192    -0.51900
C232        C  0.99341573  0.54589529  0.23253856     0.12200
H233        H  0.08727585  0.91668496  0.25592697     0.16700
H234        H  0.99192460  0.56981246  0.27827932     0.02500
H235        H  0.42629472  0.92789392  0.24979262     0.17000
H236        H  0.01978523  0.98127579  0.18725981     0.16800
O237        O  0.44136659  0.81238075  0.82606877    -0.70800
O238        O  0.44111400  0.69198241  0.88244765    -0.71800
O239        O  0.44686054  0.80370400  0.88624771    -0.60400
O240        O  0.43663276  0.69876378  0.82150208    -0.68800
O241        O  0.02583940  0.69402531  0.82121484    -0.68400
O242        O  0.03617914  0.80246472  0.88375492    -0.59600
O243        O  0.03052898  0.69040062  0.88191014    -0.72100
O244        O  0.03035669  0.80863181  0.82304470    -0.70900
Cu245      Cu  0.43841091  0.75175175  0.85393813     1.04600
Cu246      Cu  0.03387974  0.74874754  0.85221509     1.04300
C247        C  0.98561722  0.83053536  0.81625474     0.95400
C248        C  0.98568882  0.67361100  0.89178450     0.94500
C249        C  0.99314730  0.81911567  0.89521103     0.86700
C250        C  0.97979392  0.67828897  0.81197663     0.92900
O251        O  0.05272680  0.59988761  0.53249041    -0.70800
O252        O  0.43825715  0.59276269  0.47119133    -0.71800
O253        O  0.43927347  0.60135783  0.53244847    -0.60400
O254        O  0.05169527  0.59113576  0.47139987    -0.68800
O255        O  0.04946267  0.50317906  0.47511316    -0.68400
O256        O  0.43774713  0.51334720  0.53577469    -0.59600
O257        O  0.43653558  0.50480022  0.47490738    -0.72100
O258        O  0.05058887  0.51187259  0.53583784    -0.70900
Cu259      Cu  0.99552621  0.59945879  0.50174326     1.04600
Cu260      Cu  0.99348326  0.50526794  0.50553740     1.04300
C261        C  0.06860153  0.55688140  0.54415914     0.95400
C262        C  0.42061123  0.54750701  0.46297171     0.94500
C263        C  0.42213406  0.55875552  0.54418900     0.86700
C264        C  0.06717415  0.54541508  0.46331202     0.92900
C265        C  0.00555135  0.88706658  0.21727901    -0.14300
C266        C  0.04560260  0.86454226  0.20265850    -0.29500
H267        H  0.96672454  0.86685554  0.21803557     0.14700
H268        H  0.58495214  0.88374940  0.20226845     0.15300
C269        C  0.03402365  0.61529637  0.20233347    -0.14300
C270        C  0.99516614  0.60024442  0.22050306    -0.29500
H271        H  0.56787095  0.58913266  0.19876322     0.14700
H272        H  0.96269428  0.62707017  0.22563786     0.15300
C273        C  0.98520797  0.63489728  0.91448836    -0.11100
C274        C  0.98442048  0.60419396  0.93437544    -0.12700
C275        C  0.99800883  0.88549829  0.93869542    -0.11100
C276        C  0.99679206  0.85527034  0.91877800    -0.12700
C277        C  0.00252184  0.85200935  0.08427378    -0.11100
C278        C  0.99751298  0.88306043  0.06488299    -0.12700
C279        C  0.99302076  0.60333377  0.06269588    -0.11100
C280        C  0.99685219  0.63277091  0.08291285    -0.12700
C281        C  0.35364928  0.53807277  0.41913937    -0.11100
C282        C  0.38360289  0.54412554  0.43931453    -0.12700
C283        C  0.10380085  0.54099871  0.43998606    -0.11100
C284        C  0.13324016  0.53462988  0.42000667    -0.12700
C285        C  0.39502399  0.51355784  0.28824292    -0.14300
C286        C  0.36020588  0.47695158  0.29847726    -0.29500
H287        H  0.39247125  0.55440452  0.29543708     0.14700
H288        H  0.39028858  0.94610654  0.29123324     0.15300
C289        C  0.11859448  0.47265119  0.30008532    -0.14300
C290        C  0.08340161  0.50887352  0.29017533    -0.29500
H291        H  0.13713332  0.93917639  0.29317351     0.14700
H292        H  0.08713264  0.54974149  0.29731456     0.15300
C293        C  0.10617768  0.55869528  0.56757477    -0.11100
C294        C  0.13663146  0.55517703  0.58766796    -0.12700
C295        C  0.35702428  0.55770078  0.58827941    -0.11100
C296        C  0.38611481  0.56134538  0.56789955    -0.12700
C297        C  0.97620943  0.63396985  0.79134570    -0.14300
C298        C  0.01138079  0.59386208  0.79299494    -0.29500
H299        H  0.44100723  0.63053954  0.77746615     0.14700
H300        H  0.04295471  0.59495066  0.80925272     0.15300
C301        C  0.98388551  0.87879131  0.79809440    -0.14300
C302        C  0.02625917  0.89689313  0.78320503    -0.29500
H303        H  0.44653440  0.90088537  0.79739675     0.14700
H304        H  0.06307431  0.87391860  0.78318437     0.15300
C305        C  0.09083085  0.51931054  0.71722377    -0.14300
C306        C  0.12611775  0.48497494  0.70594419    -0.29500
H307        H  0.09383951  0.56115862  0.71184010     0.14700
H308        H  0.14773995  0.94232305  0.70593836     0.15300
C309        C  0.40246997  0.52174720  0.72035211    -0.14300
C310        C  0.36767710  0.48701986  0.70808567    -0.29500
H311        H  0.42915959  0.05921707  0.70515354     0.14700
H312        H  0.37331923  0.44480271  0.71132597     0.15300
C313        C  0.99956622  0.44737203  0.77187536     0.88600
C314        C  0.94827296  0.45666282  0.75376179    -0.51600
C315        C  0.97630167  0.00083261  0.73052821     0.11500
C316        C  0.02470979  0.03758440  0.73775360     0.22500
C317        C  0.54600543  0.45426620  0.75087374    -0.52300
C318        C  0.57517472  0.00344971  0.73286259     0.11600
C319        C  0.00420971  0.49597770  0.79140124    -0.51900
C320        C  0.52198423  0.04496937  0.77029635     0.12200
H321        H  0.91506531  0.42876156  0.75252225     0.16700
H322        H  0.02478731  0.07558290  0.72568071     0.02500
H323        H  0.57710466  0.42461460  0.74889192     0.17000
H324        H  0.00855006  0.49309133  0.81446944     0.16800
O325        O  0.69122275  0.49707471  0.61327654    -0.70800
O326        O  0.80457450  0.46514729  0.67182523    -0.71800
O327        O  0.69028254  0.46393486  0.67099868    -0.60400
O328        O  0.80380966  0.49831158  0.61390601    -0.68800
O329        O  0.82766960  0.08066422  0.62086318    -0.68400
O330        O  0.71553335  0.04599718  0.68008780    -0.59600
O331        O  0.83277055  0.04588848  0.67906261    -0.72100
O332        O  0.71399901  0.07970342  0.62170353    -0.70900
Cu333      Cu  0.74752618  0.47831389  0.64219253     1.04600
Cu334      Cu  0.77255098  0.06606534  0.65113309     1.04300
C335        C  0.69655339  0.04272365  0.60529377     0.95400
C336        C  0.85047479  0.99829954  0.68039013     0.94500
C337        C  0.69698302  0.99856680  0.68177924     0.86700
C338        C  0.84321720  0.04412790  0.60408560     0.92900
O339        O  0.79978059  0.47944807  0.39266644    -0.70800
O340        O  0.68376501  0.44831214  0.33487881    -0.71800
O341        O  0.79831437  0.45061973  0.33400665    -0.60400
O342        O  0.68682921  0.47753289  0.39345341    -0.68800
O343        O  0.70904799  0.08154431  0.37406808    -0.68400
O344        O  0.82236888  0.05018089  0.31479397    -0.59600
O345        O  0.70470477  0.04620559  0.31597911    -0.72100
O346        O  0.82282375  0.08511167  0.37307311    -0.70900
Cu347      Cu  0.74223602  0.46104600  0.36402170     1.04600
Cu348      Cu  0.76462434  0.06878608  0.34374490     1.04300
C349        C  0.84086856  0.04903866  0.38974913     0.95400
C350        C  0.68731262  0.99818430  0.31517784     0.94500
C351        C  0.84128642  0.00313093  0.31361657     0.86700
C352        C  0.69424043  0.04465194  0.39108814     0.92900
O353        O  0.53204006  0.05430230  0.97274440    -0.70800
O354        O  0.53237025  0.43787647  0.02848691    -0.71800
O355        O  0.52701533  0.43793714  0.96746883    -0.60400
O356        O  0.52940557  0.05306330  0.03383075    -0.68800
O357        O  0.94011001  0.04635258  0.03252945    -0.68400
O358        O  0.93759950  0.43887290  0.96913863    -0.59600
O359        O  0.94300559  0.43873588  0.03030498    -0.72100
O360        O  0.94272453  0.04778054  0.97134909    -0.70900
Cu361      Cu  0.53390332  0.49384508  0.99788311     1.04600
Cu362      Cu  0.93821977  0.49492560  0.99951464     1.04300
C363        C  0.48668297  0.06780516  0.96213214     0.95400
C364        C  0.48835029  0.42146470  0.03934548     0.94500
C365        C  0.48109964  0.42163383  0.95843644     0.86700
C366        C  0.48325143  0.06613185  0.04321422     0.92900
O367        O  0.95157068  0.30264856  0.11811672    -0.70800
O368        O  0.95570695  0.19574132  0.18194078    -0.71800
O369        O  0.96439880  0.30883270  0.17848735    -0.60400
O370        O  0.94426173  0.19066564  0.12099882    -0.68800
O371        O  0.53306341  0.18704687  0.11606837    -0.68400
O372        O  0.55299108  0.30022663  0.17537339    -0.59600
O373        O  0.54379775  0.18654141  0.17637510    -0.72100
O374        O  0.54060196  0.29879233  0.11458962    -0.70900
Cu375      Cu  0.95088336  0.24965420  0.15016881     1.04600
Cu376      Cu  0.54573721  0.24301668  0.14559647     1.04300
C377        C  0.49525066  0.31706389  0.10616803     0.95400
C378        C  0.49988278  0.17303845  0.18859127     0.94500
C379        C  0.51210491  0.32336554  0.18578958     0.86700
C380        C  0.48580865  0.17160268  0.10895343     0.92900
C381        C  0.48783335  0.44940090  0.23233179     0.88600
C382        C  0.53616307  0.45097990  0.25326434    -0.51600
C383        C  0.56118885  0.99706184  0.26498175     0.11500
C384        C  0.51501106  0.03441600  0.25550712     0.22500
C385        C  0.93838689  0.45544488  0.25133779    -0.52300
C386        C  0.96251435  0.00309438  0.26173283     0.11600
C387        C  0.49168742  0.50174929  0.21568289    -0.51900
C388        C  0.51903446  0.03598842  0.22260521     0.12200
H389        H  0.56663517  0.42060926  0.25415847     0.16700
H390        H  0.51699310  0.07415643  0.26570436     0.02500
H391        H  0.90480118  0.42764043  0.25051310     0.17000
H392        H  0.49223695  0.50376858  0.19250805     0.16800
O393        O  0.92669720  0.29349516  0.82288099    -0.70800
O394        O  0.93599394  0.18537999  0.88572276    -0.71800
O395        O  0.93128520  0.29687743  0.88362348    -0.60400
O396        O  0.93231150  0.17959496  0.82535753    -0.68800
O397        O  0.52136249  0.18569571  0.82306410    -0.68400
O398        O  0.52072189  0.30037679  0.88267103    -0.59600
O399        O  0.52536394  0.18864088  0.88391643    -0.72100
O400        O  0.51582463  0.30020520  0.82210234    -0.70900
Cu401      Cu  0.92847079  0.23871471  0.85423254     1.04600
Cu402      Cu  0.52396248  0.24387931  0.85268057     1.04300
C403        C  0.46945720  0.31551378  0.81338311     0.95400
C404        C  0.48200661  0.17079438  0.89498687     0.94500
C405        C  0.47606016  0.31573298  0.89286014     0.86700
C406        C  0.47707659  0.16301960  0.81570637     0.92900
O407        O  0.57649784  0.10605119  0.52891923    -0.70800
O408        O  0.96336944  0.11025709  0.46666636    -0.71800
O409        O  0.96294598  0.10853860  0.52815506    -0.60400
O410        O  0.57689653  0.10727295  0.46749780    -0.68800
O411        O  0.57383605  0.01907913  0.46731387    -0.68400
O412        O  0.96045399  0.02035115  0.52720594    -0.59600
O413        O  0.96097705  0.02206867  0.46624447    -0.72100
O414        O  0.57333084  0.01788313  0.52835149    -0.70900
Cu415      Cu  0.52003671  0.11122626  0.49783007     1.04600
Cu416      Cu  0.51704105  0.01683077  0.49726025     1.04300
C417        C  0.59154264  0.06126919  0.53883179     0.95400
C418        C  0.94555252  0.06663672  0.45625182     0.94500
C419        C  0.94497819  0.06429864  0.53761960     0.86700
C420        C  0.59207704  0.06280282  0.45746436     0.92900
C421        C  0.48161109  0.40182446  0.21259239    -0.14300
C422        C  0.52090986  0.36749245  0.20620252    -0.29500
H423        H  0.44285943  0.39746855  0.20179145     0.14700
H424        H  0.06128665  0.37311255  0.21468764     0.15300
C425        C  0.49912816  0.12941887  0.20976794    -0.14300
C426        C  0.52653810  0.08461717  0.20513593    -0.29500
H427        H  0.97036101  0.13096516  0.22705889     0.14700
H428        H  0.55040166  0.08135793  0.18589459     0.15300
C429        C  0.48467783  0.13463775  0.91865700    -0.11100
C430        C  0.48541658  0.10487850  0.93884756    -0.12700
C431        C  0.47829493  0.38426960  0.93539667    -0.11100
C432        C  0.47650583  0.35364877  0.91566021    -0.12700
C433        C  0.49295912  0.35368815  0.08256278    -0.11100
C434        C  0.49025662  0.38398362  0.06256978    -0.12700
C435        C  0.47997385  0.10284134  0.06656204    -0.11100
C436        C  0.48003877  0.13338826  0.08638202    -0.12700
C437        C  0.87856575  0.06208240  0.41217876    -0.11100
C438        C  0.90872289  0.06710483  0.43238841    -0.12700
C439        C  0.62882568  0.06142189  0.43406275    -0.11100
C440        C  0.65813041  0.05599054  0.41393941    -0.12700
C441        C  0.91842918  0.02261306  0.28054530    -0.14300
C442        C  0.88435689  0.98843122  0.29358802    -0.29500
H443        H  0.91573562  0.06484924  0.28472999     0.14700
H444        H  0.86545268  0.43542815  0.29318169     0.15300
C445        C  0.64233735  0.98157682  0.29601438    -0.14300
C446        C  0.60665545  0.01520777  0.28399090    -0.29500
H447        H  0.61300991  0.43107093  0.29479388     0.14700
H448        H  0.61024280  0.05737272  0.28842401     0.15300
C449        C  0.62842078  0.05933528  0.56264967    -0.11100
C450        C  0.65862100  0.05417491  0.58280298    -0.12700
C451        C  0.87903329  0.05672477  0.58117249    -0.11100
C452        C  0.90825395  0.06313541  0.56104405    -0.12700
C453        C  0.47710129  0.11518714  0.79737211    -0.14300
C454        C  0.52145986  0.09750466  0.78438279    -0.29500
H455        H  0.94007491  0.09196953  0.79579533     0.14700
H456        H  0.55846282  0.12078210  0.78479438     0.15300
C457        C  0.46407002  0.36034938  0.79304836    -0.14300
C458        C  0.50414283  0.39595208  0.78894844    -0.29500
H459        H  0.92459120  0.36639313  0.78373051     0.14700
H460        H  0.54220217  0.38992488  0.80010347     0.15300
C461        C  0.61998508  0.01981574  0.71359951    -0.14300
C462        C  0.65384546  0.98437461  0.70204171    -0.29500
H463        H  0.62346214  0.06144217  0.70781960     0.14700
H464        H  0.62098595  0.44274660  0.70956639     0.15300
C465        C  0.93140777  0.01757551  0.71101475    -0.14300
C466        C  0.89487067  0.98314501  0.70006997    -0.29500
H467        H  0.89946645  0.56369704  0.71529714     0.14700
H468        H  0.89908357  0.94102976  0.70418577     0.15300
C469        C  0.02466034  0.94867930  0.76646156     0.88600
C470        C  0.97706002  0.95381014  0.74540833    -0.51600
C471        C  0.94783394  0.50412473  0.73934140     0.11500
C472        C  0.99900481  0.53814799  0.74469383     0.22500
C473        C  0.57489534  0.95718060  0.74820314    -0.52300
C474        C  0.54651004  0.50190748  0.73663674     0.11600
C475        C  0.02178563  0.99842605  0.78532316    -0.51900
C476        C  0.50347220  0.54340077  0.77738062     0.12200
H477        H  0.94581704  0.92364128  0.74368782     0.16700
H478        H  0.99907074  0.57686700  0.73330891     0.02500
H479        H  0.60766983  0.92901788  0.74797255     0.17000
H480        H  0.02050976  0.99699272  0.80849231     0.16800
O481        O  0.71354072  0.99536801  0.60788311    -0.70800
O482        O  0.82974546  0.96205523  0.66466498    -0.71800
O483        O  0.71540701  0.96205812  0.66581022    -0.60400
O484        O  0.82637425  0.99642743  0.60684558    -0.68800
O485        O  0.80427946  0.58279454  0.62748156    -0.68400
O486        O  0.68843647  0.54788577  0.68517808    -0.59600
O487        O  0.80601757  0.54907611  0.68609985    -0.72100
O488        O  0.69050515  0.58155407  0.62685783    -0.70900
Cu489      Cu  0.77125940  0.97612558  0.63597009     1.04600
Cu490      Cu  0.74734845  0.56839214  0.65711265     1.04300
C491        C  0.67404097  0.54430585  0.61038649     0.95400
C492        C  0.82407640  0.50168352  0.68780446     0.94500
C493        C  0.67030252  0.50020166  0.68653210     0.86700
C494        C  0.82060769  0.54594503  0.61106374     0.92900
O495        O  0.82472913  0.00106151  0.38747900    -0.70800
O496        O  0.70866533  0.96283383  0.33111582    -0.71800
O497        O  0.82301897  0.96668143  0.32992268    -0.60400
O498        O  0.71208248  0.99761758  0.38864465    -0.68800
O499        O  0.68519913  0.56276168  0.38117584    -0.68400
O500        O  0.79859434  0.53575388  0.32178207    -0.59600
O501        O  0.68155149  0.53328496  0.32241045    -0.72100
O502        O  0.79866921  0.56484378  0.38070830    -0.70900
Cu503      Cu  0.76723268  0.97923828  0.35961431     1.04600
Cu504      Cu  0.74095535  0.55216868  0.35088742     1.04300
C505        C  0.81622904  0.52705259  0.39634050     0.95400
C506        C  0.66339950  0.48575483  0.32000934     0.94500
C507        C  0.81703044  0.48878505  0.31900136     0.86700
C508        C  0.66957817  0.52455200  0.39708761     0.92900
O509        O  0.52972163  0.54981320  0.96728325    -0.70800
O510        O  0.53792222  0.94169984  0.03291813    -0.71800
O511        O  0.53926961  0.94269990  0.97206955    -0.60400
O512        O  0.53409863  0.54973969  0.02850947    -0.68800
O513        O  0.94467541  0.55084445  0.02989641    -0.68400
O514        O  0.94993383  0.93618369  0.97121738    -0.59600
O515        O  0.94859713  0.93474170  0.03211160    -0.72100
O516        O  0.94033116  0.55097030  0.96851722    -0.70900
Cu517      Cu  0.53779052  0.99823272  0.00294934     1.04600
Cu518      Cu  0.94216958  0.99106648  0.00175249     1.04300
C519        C  0.48475768  0.56704704  0.95783075     0.95400
C520        C  0.49442233  0.92117388  0.04223526     0.94500
C521        C  0.49580185  0.92274708  0.96175966     0.86700
C522        C  0.49046509  0.56682555  0.03921035     0.92900
O523        O  0.96796823  0.79793031  0.12038299    -0.70800
O524        O  0.98413359  0.68496475  0.18016946    -0.71800
O525        O  0.98895473  0.79903624  0.17997007    -0.60400
O526        O  0.96456718  0.68607168  0.12010268    -0.68800
O527        O  0.55260708  0.68495099  0.11207907    -0.68400
O528        O  0.57686828  0.79615059  0.17219457    -0.59600
O529        O  0.57180201  0.68115599  0.17172564    -0.72100
O530        O  0.55612578  0.79650407  0.11264672    -0.70900
Cu531      Cu  0.97340858  0.74203545  0.15065849     1.04600
Cu532      Cu  0.56751480  0.73958644  0.14214061     1.04300
C533        C  0.50922777  0.81416634  0.10683771     0.95400
C534        C  0.52996139  0.66355605  0.18446698     0.94500
C535        C  0.53665602  0.81699356  0.18456331     0.86700
C536        C  0.50489572  0.66910380  0.10617391     0.92900
C537        C  0.51069796  0.94107756  0.23141774     0.88600
C538        C  0.55800323  0.94775223  0.25250536    -0.51600
C539        C  0.53813969  0.49553257  0.27011562     0.11500
C540        C  0.49075102  0.53372699  0.26467382     0.22500
C541        C  0.96061703  0.95469500  0.24858684    -0.52300
C542        C  0.93945787  0.49941347  0.26842774     0.11600
C543        C  0.51715800  0.98701423  0.21019138    -0.51900
C544        C  0.49341568  0.54589416  0.23253844     0.12200
H545        H  0.58727758  0.91668526  0.25592737     0.16700
H546        H  0.49192450  0.56981119  0.27827920     0.02500
H547        H  0.92629298  0.92789423  0.24979343     0.17000
H548        H  0.51978830  0.98127428  0.18725935     0.16800
O549        O  0.94136626  0.81238060  0.82606898    -0.70800
O550        O  0.94111597  0.69198415  0.88244893    -0.71800
O551        O  0.94686297  0.80370591  0.88624798    -0.60400
O552        O  0.93663214  0.69876368  0.82150335    -0.68800
O553        O  0.52584006  0.69402548  0.82121456    -0.68400
O554        O  0.53617684  0.80246319  0.88375564    -0.59600
O555        O  0.53052706  0.69039921  0.88190987    -0.72100
O556        O  0.53035714  0.80863221  0.82304537    -0.70900
Cu557      Cu  0.93841176  0.75175261  0.85393894     1.04600
Cu558      Cu  0.53387898  0.74874695  0.85221533     1.04300
C559        C  0.48561793  0.83053597  0.81625517     0.95400
C560        C  0.48568655  0.67360923  0.89178361     0.94500
C561        C  0.49314446  0.81911367  0.89521138     0.86700
C562        C  0.47979493  0.67828925  0.81197576     0.92900
O563        O  0.55272595  0.59988477  0.53249081    -0.70800
O564        O  0.93825747  0.59276400  0.47119111    -0.71800
O565        O  0.93927405  0.60135911  0.53244825    -0.60400
O566        O  0.55169475  0.59113306  0.47140033    -0.68800
O567        O  0.54946126  0.50317638  0.47511360    -0.68400
O568        O  0.93774906  0.51334847  0.53577446    -0.59600
O569        O  0.93653691  0.50480154  0.47490723    -0.72100
O570        O  0.55058684  0.51186978  0.53583833    -0.70900
Cu571      Cu  0.49552566  0.59945673  0.50174359     1.04600
Cu572      Cu  0.49348152  0.50526589  0.50553773     1.04300
C573        C  0.56860000  0.55687840  0.54415960     0.95400
C574        C  0.92061186  0.54750813  0.46297161     0.94500
C575        C  0.92213521  0.55875653  0.54418874     0.86700
C576        C  0.56717321  0.54541224  0.46331249     0.92900
C577        C  0.50555402  0.88706578  0.21727915    -0.14300
C578        C  0.54560531  0.86454102  0.20265893    -0.29500
H579        H  0.46672699  0.86685479  0.21803563     0.14700
H580        H  0.08494915  0.88375075  0.20226801     0.15300
C581        C  0.53402364  0.61529524  0.20233340    -0.14300
C582        C  0.49516589  0.60024334  0.22050294    -0.29500
H583        H  0.06787113  0.58913359  0.19876318     0.14700
H584        H  0.46269412  0.62706887  0.22563763     0.15300
C585        C  0.48520501  0.63489529  0.91448736    -0.11100
C586        C  0.48441749  0.60419227  0.93437456    -0.12700
C587        C  0.49800441  0.88549594  0.93869593    -0.11100
C588        C  0.49678813  0.85526793  0.91877855    -0.12700
C589        C  0.50252336  0.85200964  0.08427437    -0.11100
C590        C  0.49751400  0.88306048  0.06488351    -0.12700
C591        C  0.49301820  0.60333582  0.06269537    -0.11100
C592        C  0.49685000  0.63277246  0.08291252    -0.12700
C593        C  0.85364896  0.53807329  0.41913966    -0.11100
C594        C  0.88360299  0.54412624  0.43931465    -0.12700
C595        C  0.60379991  0.54099572  0.43998654    -0.11100
C596        C  0.63323926  0.53462746  0.42000711    -0.12700
C597        C  0.89502350  0.51355983  0.28824304    -0.14300
C598        C  0.86020546  0.47695350  0.29847739    -0.29500
H599        H  0.89247084  0.55440646  0.29543724     0.14700
H600        H  0.89028844  0.94610603  0.29123483     0.15300
C601        C  0.61859451  0.47265073  0.30008552    -0.14300
C602        C  0.58340207  0.50887311  0.29017514    -0.29500
H603        H  0.63713251  0.93917718  0.29317478     0.14700
H604        H  0.58713321  0.54974117  0.29731410     0.15300
C605        C  0.60617613  0.55869203  0.56757519    -0.11100
C606        C  0.63663029  0.55517418  0.58766820    -0.12700
C607        C  0.85702449  0.55770039  0.58827876    -0.11100
C608        C  0.88611551  0.56134570  0.56789912    -0.12700
C609        C  0.47621129  0.63397030  0.79134469    -0.14300
C610        C  0.51138170  0.59386185  0.79299470    -0.29500
H611        H  0.94100462  0.63053858  0.77746786     0.14700
H612        H  0.54295454  0.59495004  0.80925319     0.15300
C613        C  0.48388664  0.87879259  0.79809523    -0.14300
C614        C  0.52626034  0.89689430  0.78320573    -0.29500
H615        H  0.94653291  0.90088398  0.79739577     0.14700
H616        H  0.56307514  0.87391964  0.78318484     0.15300
C617        C  0.59083213  0.51930953  0.71722368    -0.14300
C618        C  0.62611936  0.48497405  0.70594434    -0.29500
H619        H  0.59384044  0.56115771  0.71183966     0.14700
H620        H  0.64773868  0.94232382  0.70593741     0.15300
C621        C  0.90246919  0.52174809  0.72035203    -0.14300
C622        C  0.86767818  0.48702016  0.70808468    -0.29500
H623        H  0.92915912  0.05921611  0.70515307     0.14700
H624        H  0.87332184  0.44480309  0.71132431     0.15300
loop_ 
_geom_bond_atom_site_label_1 
_geom_bond_atom_site_label_2 
_geom_bond_distance 
_geom_bond_site_symmetry_2 
_ccdc_geom_bond_type 
C1            C2   1.542       .  S
C1            C7   1.533       .  S
C1          C317   1.532       .  S
C1          C458   1.526       .  S
C2            H9   1.080       .  S
C2          C159   1.373       .  D
C3            C4   1.546       .  S
C3          C158   1.374   1_545  D
C3          C153   1.497       .  S
C4          C320   1.538       .  S
C4          C318   1.545       .  S
C4           H10   1.111       .  S
C5          C313   1.532   1_455  S
C5           H11   1.084       .  S
C5          C162   1.372       .  D
C6          C316   1.545       .  S
C6          C161   1.368   1_545  D
C6          C149   1.495       .  S
C7           H12   1.087       .  S
C7          C476   1.363       .  D
C8          C316   1.538       .  S
C8          C475   1.367   1_545  D
C8          C142   1.480       .  S
O13         Cu21   1.995       .  S
O13         C179   1.274       .  A
O14         Cu21   2.002       .  S
O14         C180   1.276       .  A
O15         Cu21   2.000       .  S
O15         C181   1.276       .  A
O16         Cu21   1.997       .  S
O16         C182   1.275       .  A
O17         Cu22   2.012       .  S
O17          C26   1.276       .  A
O18         Cu22   2.031       .  S
O18          C25   1.280   1_545  A
O19         Cu22   2.043       .  S
O19          C24   1.282   1_545  A
O20         Cu22   2.024       .  S
O20          C23   1.279       .  A
Cu21       Cu178   2.376       .  S
Cu22       Cu177   2.376   1_545  S
C23         O169   1.274   1_545  A
C23         C138   1.436       .  S
C24         O170   1.276       .  A
C24         C154   1.482       .  S
C25         O171   1.277       .  A
C25         C150   1.480       .  S
C26         O172   1.276   1_545  A
C26         C139   1.434       .  S
O27         Cu35   2.002       .  S
O27         C193   1.275       .  A
O28         Cu35   2.006       .  S
O28         C194   1.276       .  A
O29         Cu35   2.008       .  S
O29         C195   1.277       .  A
O30         Cu35   2.004       .  S
O30         C196   1.276       .  A
O31         Cu36   2.019       .  S
O31          C40   1.278       .  A
O32         Cu36   2.042       .  S
O32          C39   1.281       .  A
O33         Cu36   2.043       .  S
O33          C38   1.282   1_545  A
O34         Cu36   2.023       .  S
O34          C37   1.278       .  A
Cu35       Cu192   2.377       .  S
Cu36       Cu191   2.376   1_545  S
C37         O183   1.275       .  A
C37         C125   1.436       .  S
C38         O184   1.276       .  A
C38         C133   1.483       .  S
C39         O185   1.277   1_545  A
C39         C130   1.480   1_545  S
C40         O186   1.275   1_545  A
C40         C128   1.434       .  S
O41        Cu205   2.002   1_546  S
O41          C51   1.275   1_455  A
O42         Cu49   2.009   1_554  S
O42          C52   1.276   1_455  A
O43         Cu49   2.010       .  S
O43          C53   1.277   1_455  A
O44        Cu205   2.015   1_545  S
O44          C54   1.278   1_455  A
O45        Cu206   2.008   1_545  S
O45         C366   1.275       .  A
O46         Cu50   2.006       .  S
O46         C365   1.276       .  A
O47         Cu50   2.022   1_554  S
O47         C364   1.278       .  A
O48        Cu206   2.016   1_546  S
O48         C363   1.278       .  A
Cu49        O197   2.011       .  S
Cu49        O200   2.012   1_556  S
Cu49       Cu362   2.379   1_455  S
Cu50        O201   2.008   1_556  S
Cu50        O204   2.024       .  S
Cu50       Cu361   2.379       .  S
C51         O360   1.278       .  A
C51         C118   1.435       .  S
C52         O359   1.278       .  A
C52         C122   1.440       .  S
C53         O358   1.276       .  A
C53         C119   1.434       .  S
C54         O357   1.275       .  A
C54         C123   1.437       .  S
O55         Cu63   2.007       .  S
O55         C377   1.276       .  A
O56         Cu63   2.016       .  S
O56         C378   1.277       .  A
O57         Cu63   2.021       .  S
O57         C379   1.280       .  A
O58         Cu63   2.025       .  S
O58         C380   1.279       .  A
O59         Cu64   1.997       .  S
O59          C68   1.274   1_455  A
O60         Cu64   2.013       .  S
O60          C67   1.277       .  A
O61         Cu64   2.024       .  S
O61          C66   1.280   1_455  A
O62         Cu64   2.023       .  S
O62          C65   1.279   1_455  A
Cu63       Cu376   2.375       .  S
Cu64       Cu375   2.375   1_455  S
C65         O367   1.276       .  A
C65         C121   1.440       .  S
C66         O368   1.277       .  A
C66         C113   1.479       .  S
C67         O369   1.280   1_455  A
C67         C110   1.481       .  S
C68         O370   1.279       .  A
C68         C124   1.436       .  S
C69          C70   1.542   1_655  S
C69          C75   1.534       .  S
C69         C109   1.521       .  S
C69         C385   1.533       .  S
C70          H77   1.081       .  S
C70         C227   1.374       .  D
C71          C72   1.551   1_565  S
C71         C226   1.375       .  D
C71         C134   1.499   1_565  S
C72          C76   1.545       .  S
C72         C386   1.548   1_455  S
C72          H78   1.111       .  S
C73         C381   1.533       .  S
C73          H79   1.085       .  S
C73         C230   1.368       .  D
C74         C384   1.548       .  S
C74         C229   1.367   1_545  D
C74         C129   1.499       .  S
C75          H80   1.086       .  S
C75         C232   1.365       .  D
C76         C231   1.365   1_545  D
C76         C114   1.484       .  S
O81         Cu89   2.014       .  S
O81         C403   1.278       .  A
O82         Cu89   2.002       .  S
O82         C404   1.275       .  A
O83         Cu89   2.013       .  S
O83         C405   1.277       .  A
O84         Cu89   2.017       .  S
O84         C406   1.278       .  A
O85         Cu90   2.020       .  S
O85          C94   1.279   1_455  A
O86         Cu90   2.004       .  S
O86          C93   1.275   1_455  A
O87         Cu90   2.018       .  S
O87          C92   1.278   1_455  A
O88         Cu90   2.024       .  S
O88          C91   1.280   1_455  A
Cu89       Cu402   2.376       .  S
Cu90       Cu401   2.376   1_455  S
C91         O393   1.278       .  A
C91         C145   1.482       .  S
C92         O394   1.275       .  A
C92         C117   1.435       .  S
C93         O395   1.277       .  A
C93         C120   1.434       .  S
C94         O396   1.278       .  A
C94         C141   1.481       .  S
O95        Cu103   2.015       .  S
O95         C105   1.277       .  A
O96        Cu415   2.016       .  S
O96         C106   1.277       .  A
O97        Cu415   2.018       .  S
O97         C107   1.278       .  A
O98        Cu103   2.017       .  S
O98         C108   1.277       .  A
O99        Cu104   2.000       .  S
O99         C108   1.275       .  A
O100       Cu416   1.998       .  S
O100        C107   1.275       .  A
O101       Cu416   2.006       .  S
O101        C106   1.276       .  A
O102       Cu104   2.008       .  S
O102        C105   1.276       .  A
Cu103       O408   2.016   1_455  S
Cu103       O409   2.018   1_455  S
Cu103      Cu104   2.380       .  S
Cu104       O412   1.998   1_455  S
Cu104       O413   2.006   1_455  S
C105        C137   1.437       .  S
C106        C126   1.437       .  S
C107        C140   1.434       .  S
C108        C127   1.434       .  S
C109        H111   1.087       .  S
C109        C110   1.346   1_655  D
C110        H424   1.083       .  S
H112        C422   1.083       .  S
C113        H427   1.086       .  S
C113        C114   1.343   1_655  D
C114        H116   1.087       .  S
H115        C425   1.086       .  S
C117        C118   1.206       .  T
C119        C120   1.205       .  T
C121        C122   1.209       .  T
C123        C124   1.207       .  T
C125        C126   1.207       .  T
C127        C128   1.205       .  T
C129        H131   1.085       .  S
C129        C130   1.352   1_545  D
C130        H288   1.084       .  S
H132        C286   1.085       .  S
C133        H291   1.083       .  S
C133        C134   1.350   1_565  D
C134        H136   1.086       .  S
H135        C289   1.085       .  S
C137        C138   1.207       .  T
C139        C140   1.205       .  T
C141        H455   1.087       .  S
C141        C142   1.344   1_655  D
C142        H144   1.086       .  S
H143        C453   1.087       .  S
C145        H459   1.081       .  S
C145        C146   1.349   1_655  D
C146        C313   1.526   1_455  S
C146        H148   1.087       .  S
H147        C457   1.081       .  S
C149        H151   1.086       .  S
C149        C150   1.350   1_545  D
C150        H308   1.085       .  S
H152        C306   1.084       .  S
C153        H311   1.086       .  S
C153        C154   1.348   1_545  D
C154        H156   1.084       .  S
H155        C309   1.086       .  S
C157        C158   1.537       .  S
C157        C163   1.537       .  S
C157        C473   1.533       .  S
C157        C614   1.522       .  S
C158        H165   1.084       .  S
C159        C160   1.545       .  S
C159        C309   1.498       .  S
C160        C476   1.539       .  S
C160        C474   1.548       .  S
C160        H166   1.111       .  S
C161        C469   1.533       .  S
C161        H167   1.085       .  S
C162        C472   1.548   1_455  S
C162        C305   1.497       .  S
C163        H168   1.086       .  S
C163        C320   1.367   1_565  D
C164        C472   1.539   1_455  S
C164        C319   1.363       .  D
C164        C298   1.479       .  S
O169       Cu177   1.997       .  S
O170       Cu177   2.002       .  S
O171       Cu177   2.008       .  S
O172       Cu177   2.005       .  S
O173       Cu178   2.022       .  S
O173        C182   1.278       .  A
O174       Cu178   2.040       .  S
O174        C181   1.281       .  A
O175       Cu178   2.042       .  S
O175        C180   1.281       .  A
O176       Cu178   2.018       .  S
O176        C179   1.278       .  A
C179        C294   1.433       .  S
C180        C310   1.481       .  S
C181        C306   1.480       .  S
C182        C295   1.435       .  S
O183       Cu191   1.998   1_545  S
O184       Cu191   2.004       .  S
O185       Cu191   2.001       .  S
O186       Cu191   1.998       .  S
O187       Cu192   2.012       .  S
O187        C196   1.277       .  A
O188       Cu192   2.032       .  S
O188        C195   1.280       .  A
O189       Cu192   2.032       .  S
O189        C194   1.281       .  A
O190       Cu192   2.014       .  S
O190        C193   1.277       .  A
C193        C281   1.434       .  S
C194        C289   1.480       .  S
C195        C286   1.480       .  S
C196        C284   1.434       .  S
O197        C207   1.276   1_455  A
O198       Cu205   1.998       .  S
O198        C208   1.275   1_455  A
O199       Cu205   2.015   1_556  S
O199        C209   1.277   1_455  A
O200        C210   1.277   1_455  A
O201        C522   1.276       .  A
O202       Cu206   2.003   1_556  S
O202        C521   1.275       .  A
O203       Cu206   2.013       .  S
O203        C520   1.277       .  A
O204        C519   1.279       .  A
Cu205      Cu518   2.380   1_455  S
Cu206      Cu517   2.380       .  S
C207        O516   1.279       .  A
C207        C274   1.442       .  S
C208        O515   1.277       .  A
C208        C278   1.431       .  S
C209        O514   1.275       .  A
C209        C275   1.434       .  S
C210        O513   1.276       .  A
C210        C279   1.436       .  S
O211       Cu219   2.001       .  S
O211        C533   1.275       .  A
O212       Cu219   2.010       .  S
O212        C534   1.278       .  A
O213       Cu219   2.020       .  S
O213        C535   1.281       .  A
O214       Cu219   2.020       .  S
O214        C536   1.278       .  A
O215       Cu220   2.000       .  S
O215        C224   1.275       .  A
O216       Cu220   2.015       .  S
O216        C223   1.277       .  A
O217       Cu220   2.023       .  S
O217        C222   1.279       .  A
O218       Cu220   2.009       .  S
O218        C221   1.277       .  A
Cu219      Cu532   2.376       .  S
Cu220      Cu531   2.376   1_455  S
C221        O523   1.275   1_455  A
C221        C277   1.431       .  S
C222        O524   1.278   1_455  A
C222        C269   1.479       .  S
C223        O525   1.281   1_455  A
C223        C266   1.483       .  S
C224        O526   1.278   1_455  A
C224        C280   1.435   1_455  S
C225        C226   1.535       .  S
C225        C231   1.533       .  S
C225        C541   1.530   1_455  S
C225        C265   1.518       .  S
C226        H233   1.084       .  S
C227        C228   1.546   1_455  S
C227        C290   1.494       .  S
C228        C232   1.537       .  S
C228        C542   1.545       .  S
C228        H234   1.111       .  S
C229        C537   1.530       .  S
C229        H235   1.085       .  S
C230        C540   1.545       .  S
C230        C285   1.495       .  S
C231        H236   1.086       .  S
C232        C270   1.481       .  S
O237       Cu245   2.009       .  S
O237        C559   1.276       .  A
O238       Cu245   2.012       .  S
O238        C560   1.276       .  A
O239       Cu245   2.010       .  S
O239        C561   1.277       .  A
O240       Cu245   2.024       .  S
O240        C562   1.279       .  A
O241       Cu246   2.011       .  S
O241        C250   1.278   1_455  A
O242       Cu246   2.005       .  S
O242        C249   1.275   1_455  A
O243       Cu246   2.024       .  S
O243        C248   1.279   1_455  A
O244       Cu246   2.035       .  S
O244        C247   1.282   1_455  A
Cu245      Cu558   2.375       .  S
Cu246      Cu557   2.375   1_455  S
C247        O549   1.276       .  A
C247        C301   1.483       .  S
C248        O550   1.276       .  A
C248        C273   1.442       .  S
C249        O551   1.277       .  A
C249        C276   1.434       .  S
C250        O552   1.279       .  A
C250        C297   1.479       .  S
O251       Cu259   2.012   1_455  S
O251        C261   1.276       .  A
O252       Cu571   2.013       .  S
O252        C262   1.277       .  A
O253       Cu571   2.016       .  S
O253        C263   1.277       .  A
O254       Cu259   2.014   1_455  S
O254        C264   1.277       .  A
O255       Cu260   2.002   1_455  S
O255        C264   1.275       .  A
O256       Cu572   2.002       .  S
O256        C263   1.276       .  A
O257       Cu572   2.003       .  S
O257        C262   1.276       .  A
O258       Cu260   2.001   1_455  S
O258        C261   1.276       .  A
Cu259       O564   2.013       .  S
Cu259       O565   2.016       .  S
Cu259      Cu260   2.380       .  S
Cu260       O568   2.002       .  S
Cu260       O569   2.003       .  S
C261        C293   1.433       .  S
C262        C282   1.434       .  S
C263        C296   1.435       .  S
C264        C283   1.434       .  S
C265        H267   1.087   1_455  S
C265        C266   1.344       .  D
C266        H580   1.087       .  S
H268        C578   1.087       .  S
C269        H583   1.087       .  S
C269        C270   1.345   1_455  D
C270        H272   1.086       .  S
H271        C581   1.087       .  S
C273        C274   1.210       .  T
C275        C276   1.205       .  T
C277        C278   1.204   1_455  T
C279        C280   1.206       .  T
C281        C282   1.205       .  T
C283        C284   1.205       .  T
C285        H287   1.086       .  S
C285        C286   1.350       .  D
C289        C290   1.348       .  D
C290        H292   1.086       .  S
C293        C294   1.204       .  T
C295        C296   1.206       .  T
C297        H611   1.087       .  S
C297        C298   1.343   1_655  D
C298        H300   1.087       .  S
H299        C609   1.087       .  S
C301        H615   1.086       .  S
C301        C302   1.344   1_655  D
C302        C469   1.522       .  S
C302        H304   1.086       .  S
H303        C613   1.086       .  S
C305        H307   1.086       .  S
C305        C306   1.349       .  D
C309        C310   1.349       .  D
C310        H312   1.084       .  S
C313        C314   1.542       .  S
C313        C319   1.533   1_655  S
C314        H321   1.080       .  S
C314        C471   1.373       .  D
C315        C316   1.546   1_655  S
C315        C470   1.374   1_545  D
C315        C465   1.497       .  S
C316        H322   1.111       .  S
C317        H323   1.084       .  S
C317        C474   1.372       .  D
C318        C473   1.368   1_545  D
C318        C461   1.495       .  S
C319        H324   1.087       .  S
C320        C454   1.480       .  S
O325       Cu333   1.995       .  S
O325        C491   1.274       .  A
O326       Cu333   2.002       .  S
O326        C492   1.276       .  A
O327       Cu333   2.000       .  S
O327        C493   1.276       .  A
O328       Cu333   1.997       .  S
O328        C494   1.275       .  A
O329       Cu334   2.012       .  S
O329        C338   1.276       .  A
O330       Cu334   2.031       .  S
O330        C337   1.280   1_545  A
O331       Cu334   2.043       .  S
O331        C336   1.282   1_545  A
O332       Cu334   2.024       .  S
O332        C335   1.279       .  A
Cu333      Cu490   2.376       .  S
Cu334      Cu489   2.376   1_545  S
C335        O481   1.274   1_545  A
C335        C450   1.436       .  S
C336        O482   1.276       .  A
C336        C466   1.482       .  S
C337        O483   1.277       .  A
C337        C462   1.480       .  S
C338        O484   1.276   1_545  A
C338        C451   1.434       .  S
O339       Cu347   2.002       .  S
O339        C505   1.275       .  A
O340       Cu347   2.006       .  S
O340        C506   1.276       .  A
O341       Cu347   2.008       .  S
O341        C507   1.277       .  A
O342       Cu347   2.004       .  S
O342        C508   1.276       .  A
O343       Cu348   2.019       .  S
O343        C352   1.278       .  A
O344       Cu348   2.042       .  S
O344        C351   1.281       .  A
O345       Cu348   2.043       .  S
O345        C350   1.282   1_545  A
O346       Cu348   2.023       .  S
O346        C349   1.278       .  A
Cu347      Cu504   2.377       .  S
Cu348      Cu503   2.376   1_545  S
C349        O495   1.275       .  A
C349        C437   1.436       .  S
C350        O496   1.276       .  A
C350        C445   1.483       .  S
C351        O497   1.277   1_545  A
C351        C442   1.480   1_545  S
C352        O498   1.275   1_545  A
C352        C440   1.434       .  S
O353       Cu517   2.002   1_546  S
O353        C363   1.275       .  A
O354       Cu361   2.009   1_554  S
O354        C364   1.276       .  A
O355       Cu361   2.010       .  S
O355        C365   1.277       .  A
O356       Cu517   2.015   1_545  S
O356        C366   1.278       .  A
O357       Cu518   2.008   1_545  S
O358       Cu362   2.006       .  S
O359       Cu362   2.022   1_554  S
O360       Cu518   2.016   1_546  S
Cu361       O509   2.011       .  S
Cu361       O512   2.012   1_556  S
Cu362       O513   2.008   1_556  S
Cu362       O516   2.024       .  S
C363        C430   1.435       .  S
C364        C434   1.440       .  S
C365        C431   1.434       .  S
C366        C435   1.437       .  S
O367       Cu375   2.007       .  S
O368       Cu375   2.016       .  S
O369       Cu375   2.021       .  S
O370       Cu375   2.025       .  S
O371       Cu376   1.997       .  S
O371        C380   1.274       .  A
O372       Cu376   2.013       .  S
O372        C379   1.277       .  A
O373       Cu376   2.024       .  S
O373        C378   1.280       .  A
O374       Cu376   2.023       .  S
O374        C377   1.279       .  A
C377        C433   1.440       .  S
C378        C425   1.479       .  S
C379        C422   1.481       .  S
C380        C436   1.436       .  S
C381        C382   1.542       .  S
C381        C387   1.534       .  S
C381        C421   1.521       .  S
C382        H389   1.081       .  S
C382        C539   1.374       .  D
C383        C384   1.551   1_565  S
C383        C538   1.375       .  D
C383        C446   1.499   1_565  S
C384        C388   1.545       .  S
C384        H390   1.111       .  S
C385        H391   1.085       .  S
C385        C542   1.368       .  D
C386        C541   1.367   1_545  D
C386        C441   1.499       .  S
C387        H392   1.086       .  S
C387        C544   1.365       .  D
C388        C543   1.365   1_545  D
C388        C426   1.484       .  S
O393       Cu401   2.014       .  S
O394       Cu401   2.002       .  S
O395       Cu401   2.013       .  S
O396       Cu401   2.017       .  S
O397       Cu402   2.020       .  S
O397        C406   1.279       .  A
O398       Cu402   2.004       .  S
O398        C405   1.275       .  A
O399       Cu402   2.018       .  S
O399        C404   1.278       .  A
O400       Cu402   2.024       .  S
O400        C403   1.280       .  A
C403        C457   1.482       .  S
C404        C429   1.435       .  S
C405        C432   1.434       .  S
C406        C453   1.481       .  S
O407       Cu415   2.015       .  S
O407        C417   1.277       .  A
O408        C418   1.277       .  A
O409        C419   1.278       .  A
O410       Cu415   2.017       .  S
O410        C420   1.277       .  A
O411       Cu416   2.000       .  S
O411        C420   1.275       .  A
O412        C419   1.275       .  A
O413        C418   1.276       .  A
O414       Cu416   2.008       .  S
O414        C417   1.276       .  A
Cu415      Cu416   2.380       .  S
C417        C449   1.437       .  S
C418        C438   1.437       .  S
C419        C452   1.434       .  S
C420        C439   1.434       .  S
C421        H423   1.087       .  S
C421        C422   1.346       .  D
C425        C426   1.343       .  D
C426        H428   1.087       .  S
C429        C430   1.206       .  T
C431        C432   1.205       .  T
C433        C434   1.209       .  T
C435        C436   1.207       .  T
C437        C438   1.207       .  T
C439        C440   1.205       .  T
C441        H443   1.085       .  S
C441        C442   1.352   1_545  D
C442        H600   1.084       .  S
H444        C598   1.085       .  S
C445        H603   1.083       .  S
C445        C446   1.350   1_565  D
C446        H448   1.086       .  S
H447        C601   1.085       .  S
C449        C450   1.207       .  T
C451        C452   1.205       .  T
C453        C454   1.344       .  D
C454        H456   1.086       .  S
C457        C458   1.349       .  D
C458        H460   1.087       .  S
C461        H463   1.086       .  S
C461        C462   1.350   1_545  D
C462        H620   1.085       .  S
H464        C618   1.084       .  S
C465        H623   1.086       .  S
C465        C466   1.348   1_545  D
C466        H468   1.084       .  S
H467        C621   1.086       .  S
C469        C470   1.537   1_455  S
C469        C475   1.537       .  S
C470        H477   1.084       .  S
C471        C472   1.545       .  S
C471        C621   1.498       .  S
C472        H478   1.111       .  S
C473        H479   1.085       .  S
C474        C617   1.497       .  S
C475        H480   1.086       .  S
C476        C610   1.479       .  S
O481       Cu489   1.997       .  S
O482       Cu489   2.002       .  S
O483       Cu489   2.008       .  S
O484       Cu489   2.005       .  S
O485       Cu490   2.022       .  S
O485        C494   1.278       .  A
O486       Cu490   2.040       .  S
O486        C493   1.281       .  A
O487       Cu490   2.042       .  S
O487        C492   1.281       .  A
O488       Cu490   2.018       .  S
O488        C491   1.278       .  A
C491        C606   1.433       .  S
C492        C622   1.481       .  S
C493        C618   1.480       .  S
C494        C607   1.435       .  S
O495       Cu503   1.998   1_545  S
O496       Cu503   2.004       .  S
O497       Cu503   2.001       .  S
O498       Cu503   1.998       .  S
O499       Cu504   2.012       .  S
O499        C508   1.277       .  A
O500       Cu504   2.032       .  S
O500        C507   1.280       .  A
O501       Cu504   2.032       .  S
O501        C506   1.281       .  A
O502       Cu504   2.014       .  S
O502        C505   1.277       .  A
C505        C593   1.434       .  S
C506        C601   1.480       .  S
C507        C598   1.480       .  S
C508        C596   1.434       .  S
O509        C519   1.276       .  A
O510       Cu517   1.998       .  S
O510        C520   1.275       .  A
O511       Cu517   2.015   1_556  S
O511        C521   1.277       .  A
O512        C522   1.277       .  A
O514       Cu518   2.003   1_556  S
O515       Cu518   2.013       .  S
C519        C586   1.442       .  S
C520        C590   1.431       .  S
C521        C587   1.434       .  S
C522        C591   1.436       .  S
O523       Cu531   2.001       .  S
O524       Cu531   2.010       .  S
O525       Cu531   2.020       .  S
O526       Cu531   2.020       .  S
O527       Cu532   2.000       .  S
O527        C536   1.275       .  A
O528       Cu532   2.015       .  S
O528        C535   1.277       .  A
O529       Cu532   2.023       .  S
O529        C534   1.279       .  A
O530       Cu532   2.009       .  S
O530        C533   1.277       .  A
C533        C589   1.431       .  S
C534        C581   1.479       .  S
C535        C578   1.483       .  S
C536        C592   1.435       .  S
C537        C538   1.535       .  S
C537        C543   1.533       .  S
C537        C577   1.518       .  S
C538        H545   1.084       .  S
C539        C540   1.546       .  S
C539        C602   1.494       .  S
C540        C544   1.537       .  S
C540        H546   1.111       .  S
C541        H547   1.085       .  S
C542        C597   1.495       .  S
C543        H548   1.086       .  S
C544        C582   1.481       .  S
O549       Cu557   2.009       .  S
O550       Cu557   2.012       .  S
O551       Cu557   2.010       .  S
O552       Cu557   2.024       .  S
O553       Cu558   2.011       .  S
O553        C562   1.278       .  A
O554       Cu558   2.005       .  S
O554        C561   1.275       .  A
O555       Cu558   2.024       .  S
O555        C560   1.279       .  A
O556       Cu558   2.036       .  S
O556        C559   1.282       .  A
C559        C613   1.483       .  S
C560        C585   1.442       .  S
C561        C588   1.434       .  S
C562        C609   1.479       .  S
O563       Cu571   2.012       .  S
O563        C573   1.276       .  A
O564        C574   1.277       .  A
O565        C575   1.277       .  A
O566       Cu571   2.014       .  S
O566        C576   1.277       .  A
O567       Cu572   2.002       .  S
O567        C576   1.275       .  A
O568        C575   1.276       .  A
O569        C574   1.276       .  A
O570       Cu572   2.001       .  S
O570        C573   1.276       .  A
Cu571      Cu572   2.380       .  S
C573        C605   1.433       .  S
C574        C594   1.434       .  S
C575        C608   1.435       .  S
C576        C595   1.434       .  S
C577        H579   1.087       .  S
C577        C578   1.344       .  D
C581        C582   1.345       .  D
C582        H584   1.086       .  S
C585        C586   1.210       .  T
C587        C588   1.205       .  T
C589        C590   1.204       .  T
C591        C592   1.206       .  T
C593        C594   1.205       .  T
C595        C596   1.205       .  T
C597        H599   1.086       .  S
C597        C598   1.350       .  D
C601        C602   1.348       .  D
C602        H604   1.086       .  S
C605        C606   1.204       .  T
C607        C608   1.206       .  T
C609        C610   1.343       .  D
C610        H612   1.087       .  S
C613        C614   1.344       .  D
C614        H616   1.086       .  S
C617        H619   1.086       .  S
C617        C618   1.349       .  D
C621        C622   1.349       .  D
C622        H624   1.084       .  S
