geometry optimzed in LAMMPS
_audit_creation_date              2020-11-30 
_audit_creation_method            'lammps2cif' 
_symmetry_space_group_name_H-M    'P1' 
_symmetry_Int_Tables_number       1 
_symmetry_cell_setting            triclinic 
loop_ 
_symmetry_equiv_pos_as_xyz 
  x,y,z 
_cell_length_a                    46.02881332 
_cell_length_b                    46.06320940032491 
_cell_length_c                    46.18535264349698 
_cell_angle_alpha                 89.89737073641282 
_cell_angle_beta                  90.13597803337186 
_cell_angle_gamma                 89.92000086142714 
loop_ 
_atom_site_label 
_atom_site_type_symbol 
_atom_site_fract_x 
_atom_site_fract_y 
_atom_site_fract_z 
_atom_site_charge 
C1          C  0.21257415  0.87481834  0.02654789     0.80800
N2          N  0.21195785  0.90433835  0.02784224    -0.77500
C3          C  0.21169237  0.92048647  0.00309211     0.83300
N4          N  0.21179710  0.90691912  0.97688885    -0.77400
C5          C  0.21264770  0.87745153  0.97546549     0.83400
N6          N  0.21318347  0.86169310  0.00027878    -0.79100
C7          C  0.61547386  0.99674416  0.02876993     0.80800
N8          N  0.61669321  0.01207829  0.00372221    -0.77500
C9          C  0.61718694  0.99845280  0.97774863     0.83300
N10         N  0.61669757  0.96897430  0.97679071    -0.77400
C11         C  0.61571083  0.95326544  0.00176536     0.83400
N12         N  0.61512231  0.96724136  0.02770734    -0.79100
C13         C  0.86067678  0.96262163  0.30006181     0.80800
N14         N  0.89021586  0.96221645  0.30038099    -0.77500
C15         C  0.90484551  0.93661308  0.30300336     0.83300
N16         N  0.88983297  0.91131906  0.30475376    -0.77400
C17         C  0.86036327  0.91162097  0.30476167     0.83400
N18         N  0.84599314  0.93722587  0.30257969    -0.79100
C19         C  0.97350984  0.96335236  0.68135909     0.80800
N20         N  0.94408002  0.96198192  0.68299103    -0.77500
C21         C  0.93035878  0.93586864  0.68373227     0.83300
N22         N  0.94639676  0.91096611  0.68347833    -0.77400
C23         C  0.97592248  0.91220100  0.68179862     0.83400
N24         N  0.98926542  0.93843294  0.68079874    -0.79100
C25         C  0.94898017  0.62521629  0.06028403     0.80800
N26         N  0.92419402  0.62755542  0.07587057    -0.77500
C27         C  0.89786681  0.62782456  0.06258029     0.83300
N28         N  0.89658690  0.62529265  0.03325229    -0.77400
C29         C  0.92138003  0.62269499  0.01740448     0.83400
N30         N  0.94763545  0.62299789  0.03100913    -0.79100
C31         C  0.89604785  0.25275455  0.93669681     0.80800
N32         N  0.92156670  0.25142603  0.92227376    -0.77500
C33         C  0.94714926  0.25274737  0.93675890     0.83300
N34         N  0.94724126  0.25532943  0.96609524    -0.77400
C35         C  0.92167023  0.25658315  0.98085604     0.83400
N36         N  0.89608057  0.25497586  0.96604548    -0.79100
C37         C  0.61786976  0.87794660  0.97378251     0.80800
N38         N  0.61666201  0.90739705  0.97476818    -0.77500
C39         C  0.61650331  0.92131968  0.00075036     0.83300
N40         N  0.61808391  0.90560471  0.02573525    -0.77400
C41         C  0.61951731  0.87611741  0.02481943     0.83400
N42         N  0.61923380  0.86258590  0.99879155    -0.79100
C43         C  0.21492069  0.99572514  0.03173535     0.80800
N44         N  0.21247531  0.01136307  0.00697224    -0.77500
C45         C  0.20942376  0.99800772  0.98103439     0.83300
N46         N  0.20918545  0.96850528  0.97990551    -0.77400
C47         C  0.21168224  0.95249475  0.00460223     0.83400
N48         N  0.21430659  0.96621935  0.03059451    -0.79100
C49         C  0.85367794  0.95900716  0.69330564     0.80800
N50         N  0.88297440  0.95988213  0.68966016    -0.77500
C51         C  0.89843015  0.93481317  0.68657560     0.83300
N52         N  0.88432647  0.90884579  0.68702474    -0.77400
C53         C  0.85497678  0.90791262  0.69038579     0.83400
N54         N  0.83993617  0.93301547  0.69369491    -0.79100
C55         C  0.98114393  0.96158531  0.30096173     0.80800
N56         N  0.99552479  0.93591869  0.29910351    -0.77500
C57         C  0.98084400  0.91041514  0.29924045     0.83300
N58         N  0.95137650  0.91059476  0.30098411    -0.77400
C59         C  0.93673524  0.93623872  0.30255809     0.83400
N60         N  0.95170029  0.96160138  0.30259617    -0.79100
C61         C  0.89173763  0.61901965  0.94305257     0.80800
N62         N  0.89347917  0.61999486  0.97233361    -0.77500
C63         C  0.91984204  0.62069142  0.98561794     0.83300
N64         N  0.94446600  0.62091291  0.96931756    -0.77400
C65         C  0.94283720  0.62031785  0.93985127     0.83400
N66         N  0.91631641  0.61942455  0.92695977    -0.79100
C67         C  0.94694084  0.26029888  0.05734886     0.80800
N68         N  0.92118967  0.25863346  0.07166478    -0.77500
C69         C  0.89572501  0.25656240  0.05684553     0.83300
N70         N  0.89605120  0.25612561  0.02743271    -0.77400
C71         C  0.92159224  0.25805324  0.01279764     0.83400
N72         N  0.94700572  0.25987032  0.02785403    -0.79100
C73         C  0.35505169  0.45872650  0.79719635     0.80800
N74         N  0.38462185  0.45941350  0.79843527    -0.77500
C75         C  0.40020702  0.43447651  0.80205155     0.83300
N76         N  0.38609678  0.40862130  0.80392935    -0.77400
C77         C  0.35662194  0.40765721  0.80270859     0.83400
N78         N  0.34144001  0.43271890  0.79959011    -0.79100
C79         C  0.36338504  0.46346457  0.20014107     0.80800
N80         N  0.39289141  0.46277452  0.19967299    -0.77500
C81         C  0.40711156  0.43686335  0.19878486     0.83300
N82         N  0.39163988  0.41168711  0.19835732    -0.77400
C83         C  0.36212779  0.41237040  0.19868565     0.83400
N84         N  0.34822776  0.43828234  0.19976204    -0.79100
C85         C  0.10400327  0.37429415  0.52957205     0.80800
N86         N  0.10390263  0.40373147  0.52892055    -0.77500
C87         C  0.10308804  0.41805600  0.50316509     0.83300
N88         N  0.10253006  0.40263833  0.47799149    -0.77400
C89         C  0.10283310  0.37304043  0.47850206     0.83400
N90         N  0.10375705  0.35917566  0.50444348    -0.79100
O91         O  0.21554218  0.23351684  0.74399879    -0.77900
C92         C  0.22450432  0.15476141  0.69731475     0.83200
O93         O  0.11945039  0.22027175  0.70725791    -0.79000
O94         O  0.14031223  0.11920243  0.72373394    -0.80500
O95         O  0.18750055  0.15662667  0.81217807    -0.80300
O96         O  0.20870893  0.22458520  0.79068036    -0.78900
Zn97       Zn  0.19026615  0.20589514  0.72175097     1.55700
O98         O  0.18440950  0.12014329  0.78043782    -0.80300
Cd99       Cd  0.17647011  0.19321882  0.78843123     1.59700
Cd100      Cd  0.12500580  0.18964821  0.73992215     1.59600
O101        O  0.14036431  0.21022162  0.80873836    -0.80300
O102        O  0.16720203  0.18238370  0.74746393    -1.90800
Cd103      Cd  0.17631081  0.14030400  0.74080771     1.59900
O104        O  0.10452841  0.20481795  0.77678772    -0.80300
O105        O  0.21170603  0.13552149  0.71262892    -0.78900
C106        C  0.13812565  0.23341590  0.69170327     0.83600
C107        C  0.22114115  0.23875198  0.77048264     0.83300
O108        O  0.21715368  0.18136219  0.69845171    -0.77900
C109        C  0.18816917  0.12962706  0.80613786     0.84100
O110        O  0.16531297  0.22938183  0.69473828    -0.78000
C111        C  0.11364863  0.21224006  0.80178803     0.84200
C112        C  0.11350299  0.12606629  0.72179897     0.84500
O113        O  0.10456356  0.15153885  0.72792727    -0.80400
C114        C  0.72538141  0.37734697  0.52809000     0.80800
N115        N  0.72858423  0.40663837  0.52758849    -0.77500
C116        C  0.73020784  0.42106545  0.50185838     0.83300
N117        N  0.72819065  0.40593043  0.47662559    -0.77400
C118        C  0.72494338  0.37652108  0.47701083     0.83400
N119        N  0.72359776  0.36249583  0.50286140    -0.79100
C120        C  0.39164834  0.13068227  0.55845714     0.80800
N121        N  0.41675208  0.13293242  0.57355975    -0.77500
C122        C  0.44264302  0.13483898  0.55987695     0.83300
N123        N  0.44347604  0.13423452  0.53045172    -0.77400
C124        C  0.41842076  0.13191879  0.51484016     0.83400
N125        N  0.39241343  0.13038111  0.52895991    -0.79100
O126        O  0.61606644  0.23747015  0.75465704    -0.77900
C127        C  0.69139804  0.24119245  0.69583578     0.83200
O128        O  0.62279585  0.14355024  0.71295827    -0.79000
O129        O  0.72693178  0.15557279  0.72783782    -0.80500
O130        O  0.70005095  0.21030544  0.81196055    -0.80300
O131        O  0.62909913  0.22827131  0.80019419    -0.78900
Zn132      Zn  0.64141953  0.21329459  0.72889068     1.55700
O133        O  0.73109665  0.20915912  0.77551588    -0.80300
Cd134      Cd  0.66104883  0.19686609  0.79379243     1.59700
Cd135      Cd  0.65538607  0.14645997  0.74411417     1.59600
O136        O  0.64852707  0.15995708  0.81607109    -0.80300
O137        O  0.66609007  0.18793831  0.75157238    -1.90800
Cd138      Cd  0.70752009  0.19431782  0.74022760     1.59900
O139        O  0.64129578  0.12674061  0.78174561    -0.80300
O140        O  0.71069914  0.22454104  0.70677226    -0.78900
C141        C  0.60969950  0.16347927  0.69881685     0.83600
C142        C  0.61319555  0.24153350  0.78176903     0.83300
O143        O  0.66484849  0.23985873  0.70338031    -0.77900
C144        C  0.72569557  0.21378397  0.80217436     0.84100
O145        O  0.61515055  0.19026524  0.70279142    -0.78000
C146        C  0.64127100  0.13445036  0.80823311     0.84200
C147        C  0.71803302  0.12940453  0.72618880     0.84500
O148        O  0.69161801  0.12276260  0.73126937    -0.80400
C149        C  0.10947121  0.49423239  0.47729281     0.80800
N150        N  0.10698826  0.46478162  0.47730795    -0.77500
C151        C  0.10425732  0.45005709  0.50275154     0.83300
N152        N  0.10415322  0.46495241  0.52820582    -0.77400
C153        C  0.10647547  0.49435843  0.52837807     0.83400
N154        N  0.10918278  0.50874598  0.50287163    -0.79100
O155        O  0.16372699  0.73575957  0.80210913    -0.77900
C156        C  0.11335200  0.74518655  0.72243544     0.83200
O157        O  0.12390509  0.64221699  0.78889244    -0.79000
O158        O  0.14587328  0.65968682  0.68604133    -0.80500
O159        O  0.22849397  0.71191299  0.72258251    -0.80300
O160        O  0.21050740  0.72768468  0.79270753    -0.78900
Zn161      Zn  0.14047943  0.71267979  0.77358786     1.55700
O162        O  0.19501897  0.71232872  0.68799380    -0.80300
Cd163      Cd  0.20720624  0.69708505  0.75921391     1.59700
Cd164      Cd  0.15691981  0.64650627  0.75813689     1.59600
O165        O  0.22915353  0.65897527  0.76998020    -0.80300
O166        O  0.16539409  0.68854252  0.74990849    -1.90800
Cd167      Cd  0.15756467  0.69738180  0.70798557     1.59900
O168        O  0.19453686  0.62503888  0.77143358    -0.80300
O169        O  0.12573771  0.72946735  0.70334881    -0.78900
C170        C  0.10824077  0.66157103  0.80105634     0.83600
C171        C  0.19051398  0.74019443  0.80727259     0.83300
O172        O  0.11764806  0.74117263  0.74939727    -0.77900
C173        C  0.22116582  0.71619808  0.69626924     0.84100
O174        O  0.11235266  0.68851228  0.79642025    -0.78000
C175        C  0.22109724  0.63271448  0.77354636     0.84200
C176        C  0.14182588  0.63342916  0.69395625     0.84500
O177        O  0.14416925  0.62544966  0.72033384    -0.80400
C178        C  0.47581123  0.46215751  0.80458679     0.80800
N179        N  0.44631423  0.46127864  0.80351434    -0.77500
C180        C  0.43221076  0.43533253  0.80342449     0.83300
N181        N  0.44784669  0.41019165  0.80413013    -0.77400
C182        C  0.47738229  0.41098730  0.80487762     0.83400
N183        N  0.49115171  0.43700042  0.80510950    -0.79100
C184        C  0.39530785  0.72912973  0.56440126     0.80800
N185        N  0.42065403  0.73137726  0.57917985    -0.77500
C186        C  0.44638478  0.73280824  0.56499550     0.83300
N187        N  0.44664298  0.73138107  0.53554714    -0.77400
C188        C  0.42125741  0.72889640  0.52047958     0.83400
N189        N  0.39561896  0.72797417  0.53502901    -0.79100
C190        C  0.73337571  0.49789844  0.47678248     0.80800
N191        N  0.73353971  0.51196603  0.50254381    -0.77500
C192        C  0.73346095  0.49703785  0.52784897     0.83300
N193        N  0.73290649  0.46757226  0.52729545    -0.77400
C194        C  0.73266669  0.45304636  0.50168288     0.83400
N195        N  0.73278615  0.46831089  0.47631250    -0.79100
O196        O  0.72177043  0.73154101  0.75331650    -0.77900
C197        C  0.64983737  0.73630803  0.81176557     0.83200
O198        O  0.71110642  0.63494049  0.79331043    -0.79000
O199        O  0.60807670  0.65478436  0.77777436    -0.80500
O200        O  0.63827839  0.70652183  0.69432057    -0.80300
O201        O  0.70824035  0.72452298  0.70756948    -0.78900
Zn202      Zn  0.69750855  0.70573408  0.77803231     1.55700
O203        O  0.60740517  0.70893371  0.73129547    -0.80300
Cd204      Cd  0.67686300  0.69254983  0.71301491     1.59700
Cd205      Cd  0.67923552  0.64081384  0.76182888     1.59600
O206        O  0.68926065  0.65590459  0.69061758    -0.80300
O207        O  0.67111055  0.68300063  0.75492507    -1.90800
Cd208      Cd  0.63016192  0.69236381  0.76620105     1.59900
O209        O  0.69155331  0.62046723  0.72354251    -0.80300
O210        O  0.62907350  0.72300037  0.79918665    -0.78900
C211        C  0.72671232  0.65372496  0.80628165     0.83600
C212        C  0.72370569  0.73745676  0.72649058     0.83300
O213        O  0.67627916  0.73147673  0.80553633    -0.77900
C214        C  0.61309857  0.71188697  0.70446744     0.84100
O215        O  0.72379650  0.68079159  0.80173904    -0.78000
C216        C  0.69367634  0.62944394  0.69746835     0.84200
C217        C  0.61571568  0.62819712  0.77958644     0.84500
O218        O  0.64186100  0.62022729  0.77520587    -0.80400
C219        C  0.44663120  0.13416844  0.43949928     0.80800
N220        N  0.44555666  0.13391121  0.46892634    -0.77500
C221        C  0.41955162  0.13172330  0.48281232     0.83300
N222        N  0.39461629  0.13005381  0.46698312    -0.77400
C223        C  0.39538534  0.13061962  0.43749499     0.83400
N224        N  0.42155556  0.13270600  0.42400425    -0.79100
O225        O  0.62387622  0.24004052  0.24652843    -0.77900
C226        C  0.61738440  0.16660012  0.30513121     0.83200
O227        O  0.71899737  0.23051895  0.29039240    -0.79000
O228        O  0.70162046  0.12784595  0.27317880    -0.80500
O229        O  0.65276828  0.15834910  0.18821364    -0.80300
O230        O  0.63379231  0.22736277  0.20097209    -0.78900
Zn231      Zn  0.64865762  0.21561084  0.27265573     1.55700
O232        O  0.64983237  0.12545366  0.22357158    -0.80300
Cd233      Cd  0.66580938  0.19633548  0.20747200     1.59700
Cd234      Cd  0.71466525  0.19940206  0.25787939     1.59600
O235        O  0.70348325  0.20851163  0.18568727    -0.80300
O236        O  0.67287919  0.19000799  0.24989220    -1.90800
Cd237      Cd  0.66359117  0.14850611  0.26032142     1.59900
O238        O  0.73566409  0.21424824  0.22093891    -0.80300
O239        O  0.63197564  0.14624717  0.29319380    -0.78900
C240        C  0.69963616  0.24560083  0.30320342     0.83600
C241        C  0.61983877  0.24247994  0.21936577     0.83300
O242        O  0.62172043  0.19317462  0.29883041    -0.77900
C243        C  0.64799553  0.13253288  0.19684992     0.84100
O244        O  0.67269364  0.24219541  0.29780348    -0.78000
C245        C  0.72906307  0.21500393  0.19412155     0.84200
C246        C  0.72821937  0.13562147  0.27412050     0.84500
O247        O  0.73627279  0.16165608  0.26925007    -0.80400
C248        C  0.44714444  0.72294391  0.44472342     0.80800
N249        N  0.42164756  0.72078674  0.43021927    -0.77500
C250        C  0.39590428  0.72204553  0.44439164     0.83300
N251        N  0.39594064  0.72487347  0.47372029    -0.77400
C252        C  0.42148334  0.72661389  0.48863223     0.83400
N253        N  0.44709888  0.72593676  0.47398468    -0.79100
C254        C  0.48418373  0.45996113  0.20206720     0.80800
N255        N  0.49797412  0.43395633  0.20143867    -0.77500
C256        C  0.48256091  0.40897523  0.19987406     0.83300
N257        N  0.45310341  0.40993158  0.19897229    -0.77400
C258        C  0.43905450  0.43591265  0.19937870     0.83400
N259        N  0.45468064  0.46093569  0.20093934    -0.79100
O260        O  0.67382521  0.63542666  0.30245169    -0.77900
C261        C  0.61453907  0.71065483  0.30548293     0.83200
O262        O  0.63243946  0.64410422  0.20668335    -0.79000
O263        O  0.64808227  0.74806665  0.22133551    -0.80500
O264        O  0.73173287  0.71897822  0.27413099    -0.80300
O265        O  0.71941870  0.64903074  0.29391120    -0.78900
Zn266      Zn  0.64831155  0.66080918  0.27715976     1.55700
O267        O  0.69479350  0.74988820  0.27629032    -0.80300
Cd268      Cd  0.71334263  0.68004753  0.26119683     1.59700
Cd269      Cd  0.66354437  0.67656071  0.21043896     1.59600
O270        O  0.73567255  0.66710706  0.22425804    -0.80300
O271        O  0.67100793  0.68592370  0.25231899    -1.90800
Cd272      Cd  0.65956659  0.72732614  0.25978473     1.59900
O273        O  0.70149186  0.66292104  0.19032147    -0.80300
O274        O  0.62566224  0.73035896  0.28956554    -0.78900
C275        C  0.61861763  0.63034058  0.22627043     0.83600
C276        C  0.70101305  0.63326224  0.30731601     0.83300
O277        O  0.62200839  0.68411365  0.30319337    -0.77900
C278        C  0.72174321  0.74424873  0.27945818     0.84100
O279        O  0.62291133  0.63494591  0.25312138    -0.78000
C280        C  0.72800151  0.66134450  0.19831513     0.84200
C281        C  0.64554225  0.73965705  0.19512808     0.84500
O282        O  0.64974860  0.71328089  0.18779997    -0.80400
O283        O  0.11854395  0.68357609  0.20193138    -0.77900
C284        C  0.11458791  0.73866268  0.27859509     0.83200
O285        O  0.21381480  0.72755603  0.21359783    -0.79000
O286        O  0.19827574  0.70237830  0.31575104    -0.80500
O287        O  0.14609636  0.62082518  0.28052371    -0.80300
O288        O  0.12977752  0.63736336  0.21118486    -0.78900
Zn289      Zn  0.14372334  0.70794756  0.22770037     1.55700
O290        O  0.14486805  0.65509426  0.31441108    -0.80300
Cd291      Cd  0.16085608  0.64199812  0.24366554     1.59700
Cd292      Cd  0.21001883  0.69319749  0.24302088     1.59600
O293        O  0.19899573  0.62145035  0.23094441    -0.80300
O294        O  0.16839653  0.68406895  0.25192988    -1.90800
Cd295      Cd  0.16011494  0.69232985  0.29385302     1.59900
O296        O  0.23063448  0.65739708  0.22541722    -0.80300
O297        O  0.12972455  0.72587608  0.29802151    -0.78900
C298        C  0.19409770  0.74047027  0.19892592     0.83600
C299        C  0.11523262  0.65654331  0.19745581     0.83300
O300        O  0.11760124  0.73308200  0.25178557    -0.77900
C301        C  0.14140066  0.62875919  0.30654992     0.84100
O302        O  0.16733353  0.73434897  0.20224024    -0.78000
C303        C  0.22421788  0.63053846  0.22395376     0.84200
C304        C  0.22476324  0.70371660  0.30780834     0.84500
O305        O  0.23233202  0.70128166  0.28134517    -0.80400
O306        O  0.21507254  0.24258879  0.25476258    -0.77900
C307        C  0.13836413  0.23951167  0.30861899     0.83200
O308        O  0.21046032  0.14371052  0.28849389    -0.79000
O309        O  0.10484352  0.15879452  0.26828852    -0.80500
O310        O  0.13831028  0.21738680  0.18856175    -0.80300
O311        O  0.20769630  0.23427950  0.20784421    -0.78900
Zn312      Zn  0.19071388  0.21421847  0.27680102     1.55700
O313        O  0.10402858  0.21398622  0.22242790    -0.80300
Cd314      Cd  0.17572479  0.20222563  0.20956629     1.59700
Cd315      Cd  0.17736193  0.14931114  0.25801755     1.59600
O316        O  0.18905174  0.16571567  0.18685881    -0.80300
O317        O  0.16739267  0.19114206  0.25085491    -1.90800
Cd318      Cd  0.12507886  0.19781392  0.25877192     1.59900
O319        O  0.18971408  0.13007637  0.21968663    -0.80300
O320        O  0.11943850  0.22649208  0.29315654    -0.78900
C321        C  0.22429619  0.16286929  0.30284192     0.83600
C322        C  0.22024669  0.24812532  0.22826745     0.83300
O323        O  0.16548044  0.23644278  0.30416664    -0.77900
C324        C  0.11191771  0.21996625  0.19664643     0.84100
O325        O  0.21836071  0.18975847  0.30030416    -0.78000
C326        C  0.19276979  0.13911808  0.19378322     0.84200
C327        C  0.11413679  0.13301701  0.27239882     0.84500
O328        O  0.14104465  0.12667815  0.27091557    -0.80400
C329        C  0.53849374  0.51541793  0.22985677    -0.04900
C330        C  0.53734466  0.53662560  0.20781588     0.09300
C331        C  0.51785225  0.53330245  0.18445908    -0.02200
C332        C  0.49979757  0.50860575  0.18292325    -0.00500
C333        C  0.50152531  0.48693913  0.20455897    -0.04100
C334        C  0.52089724  0.49048302  0.22809073     0.02900
C335        C  0.55698193  0.56236895  0.20937161     0.09700
C336        C  0.51664931  0.55522242  0.16192433     0.35600
C337        C  0.52249726  0.46863735  0.25073215     0.39100
C338        C  0.58466981  0.56138972  0.19634043    -0.04500
C339        C  0.60451385  0.58432925  0.20059184     0.02700
C340        C  0.59672962  0.60823169  0.21809518    -0.04100
C341        C  0.56842703  0.60982994  0.22983377    -0.00300
C342        C  0.54863743  0.58694118  0.22548760    -0.02900
C343        C  0.59298212  0.53627939  0.17934286     0.36400
C344        C  0.55961767  0.63516015  0.24630321     0.40000
C345        C  0.63338578  0.58257677  0.18818163     0.39100
C346        C  0.51985986  0.58829321  0.23813771     0.36100
C347        C  0.55779689  0.51939294  0.25442112     0.36700
C348        C  0.48024739  0.50498062  0.15852883     0.40000
N349        N  0.65640820  0.58115581  0.17825526    -0.38100
N350        N  0.59952195  0.51619925  0.16580447    -0.39700
N351        N  0.55268495  0.65542738  0.25936994    -0.37400
N352        N  0.49689208  0.58932835  0.24822190    -0.39800
N353        N  0.51578064  0.57274090  0.14395186    -0.39600
N354        N  0.46462728  0.50203447  0.13908617    -0.37200
N355        N  0.52383148  0.45116591  0.26873021    -0.38300
N356        N  0.57309045  0.52273669  0.27405580    -0.39900
C357        C  0.29196635  0.68751734  0.35321430    -0.04900
C358        C  0.29251007  0.71146001  0.37220000     0.09300
C359        C  0.27025549  0.73251279  0.37069426    -0.02200
C360        C  0.24806552  0.73016201  0.34964675    -0.00500
C361        C  0.24778945  0.70648293  0.33025203    -0.04100
C362        C  0.26944052  0.68476854  0.33265301     0.02900
C363        C  0.31792313  0.71571096  0.39204585     0.09700
C364        C  0.27061866  0.75689230  0.39050536     0.35600
C365        C  0.26795355  0.65897484  0.31471189     0.39100
C366        C  0.34146682  0.73282440  0.38279323    -0.04500
C367        C  0.36628914  0.73585482  0.40042908     0.02700
C368        C  0.36819079  0.72110555  0.42739429    -0.04100
C369        C  0.34400622  0.70470042  0.43706157    -0.00300
C370        C  0.31894595  0.70215808  0.41944243    -0.02900
C371        C  0.34020912  0.74707207  0.35475401     0.36400
C372        C  0.34508128  0.68952796  0.46459463     0.40000
C373        C  0.38955283  0.75481130  0.39084943     0.39100
C374        C  0.29424505  0.68534068  0.42928913     0.36100
C375        C  0.31500638  0.66602235  0.35446638     0.36700
C376        C  0.22620006  0.75269427  0.34728872     0.40000
N377        N  0.40808777  0.76990700  0.38315601    -0.38100
N378        N  0.33909363  0.75835739  0.33237329    -0.39700
N379        N  0.34583476  0.67746033  0.48658915    -0.37400
N380        N  0.27448720  0.67199012  0.43715192    -0.39800
N381        N  0.27098915  0.77630047  0.40637557    -0.39600
N382        N  0.20889896  0.77084724  0.34546585    -0.37200
N383        N  0.26657081  0.63820991  0.30071171    -0.38300
N384        N  0.33347616  0.64897132  0.35539425    -0.39900
C385        C  0.50932981  0.69772741  0.39730364    -0.04900
C386        C  0.52260347  0.72440310  0.38993376     0.09300
C387        C  0.51203895  0.75043446  0.40217689    -0.02200
C388        C  0.48774006  0.74988246  0.42077952    -0.00500
C389        C  0.47453768  0.72322250  0.42805076    -0.04100
C390        C  0.48565952  0.69712534  0.41663136     0.02900
C391        C  0.54747964  0.72478655  0.36898020     0.09700
C392        C  0.52599631  0.77779048  0.39536636     0.35600
C393        C  0.47253983  0.66965184  0.42465040     0.39100
C394        C  0.54325336  0.73423974  0.34013209    -0.04500
C395        C  0.56585971  0.73147945  0.31963426     0.02700
C396        C  0.59245358  0.71831752  0.32766123    -0.04100
C397        C  0.59713612  0.71033580  0.35687519    -0.00300
C398        C  0.57488509  0.71393424  0.37750305    -0.02900
C399        C  0.51526743  0.74583545  0.33133698     0.36400
C400        C  0.62502089  0.69853294  0.36575981     0.40000
C401        C  0.56129117  0.74113374  0.29006605     0.39100
C402        C  0.57999306  0.70609697  0.40752076     0.36100
C403        C  0.51956047  0.67094702  0.38432973     0.36700
C404        C  0.47551437  0.77682349  0.43151337     0.40000
N405        N  0.55763420  0.74904648  0.26653763    -0.38100
N406        N  0.49291210  0.75511778  0.32445078    -0.39700
N407        N  0.64729704  0.68914569  0.37275796    -0.37400
N408        N  0.58401040  0.69989800  0.43149154    -0.39800
N409        N  0.53711975  0.79963232  0.38990623    -0.39600
N410        N  0.46552251  0.79825920  0.43995068    -0.37200
N411        N  0.46214758  0.64774644  0.43119676    -0.38300
N412        N  0.52774304  0.64963417  0.37389849    -0.39900
C413        C  0.54835289  0.27848022  0.20034700    -0.04900
C414        C  0.55659068  0.30798643  0.20080282     0.09300
C415        C  0.58617070  0.31550341  0.20397300    -0.02200
C416        C  0.60720170  0.29368406  0.20803379    -0.00500
C417        C  0.59872085  0.26435364  0.20935544    -0.04100
C418        C  0.56946658  0.25663876  0.20453176     0.02900
C419        C  0.53422533  0.33144624  0.19925907     0.09700
C420        C  0.59482115  0.34577832  0.20408190     0.35600
C421        C  0.56111515  0.22629842  0.20423011     0.39100
C422        C  0.51821506  0.33886305  0.22423759    -0.04500
C423        C  0.50020376  0.36364068  0.22410300     0.02700
C424        C  0.49818556  0.38101159  0.19899745    -0.04100
C425        C  0.51320192  0.37289714  0.17367413    -0.00300
C426        C  0.53101271  0.34801152  0.17372976    -0.02900
C427        C  0.52115575  0.32156388  0.25036834     0.36400
C428        C  0.51077735  0.39057639  0.14775345     0.40000
C429        C  0.48497523  0.37213423  0.25022146     0.39100
C430        C  0.54667605  0.33980185  0.14778650     0.36100
C431        C  0.51808725  0.27073743  0.19635173     0.36700
C432        C  0.63762833  0.30133028  0.21108575     0.40000
N433        N  0.47292908  0.37896944  0.27109794    -0.38100
N434        N  0.52349818  0.30762293  0.27111703    -0.39700
N435        N  0.50883078  0.40477882  0.12714509    -0.37400
N436        N  0.55923335  0.33322438  0.12713067    -0.39800
N437        N  0.60168313  0.36993704  0.20413747    -0.39600
N438        N  0.66195361  0.30727664  0.21326360    -0.37200
N439        N  0.55446627  0.20208319  0.20371146    -0.38300
N440        N  0.49389700  0.26461991  0.19330113    -0.39900
C441        C  0.57732455  0.14040549  0.37297485    -0.04900
C442        C  0.54866647  0.14981595  0.36705372     0.09300
C443        C  0.54270219  0.16407879  0.34060865    -0.02200
C444        C  0.56505512  0.16880309  0.32026120    -0.00500
C445        C  0.59381116  0.15967323  0.32619736    -0.04100
C446        C  0.59988025  0.14562010  0.35278455     0.02900
C447        C  0.52451839  0.14485200  0.38845278     0.09700
C448        C  0.51342178  0.17400551  0.33435801     0.35600
C449        C  0.62955013  0.13798396  0.36010255     0.39100
C450        C  0.51392426  0.16806704  0.40543846    -0.04500
C451        C  0.48907400  0.16429825  0.42300786     0.02700
C452        C  0.47480965  0.13719463  0.42401148    -0.04100
C453        C  0.48640765  0.11355000  0.40839057    -0.00300
C454        C  0.51093813  0.11743305  0.39042147    -0.02900
C455        C  0.52826860  0.19604808  0.40427922     0.36400
C456        C  0.47331873  0.08507861  0.41117315     0.40000
C457        C  0.47757018  0.18858719  0.43932107     0.39100
C458        C  0.52173676  0.09342088  0.37326314     0.36100
C459        C  0.58360883  0.12569461  0.40005390     0.36700
C460        C  0.55832017  0.18283994  0.29291985     0.40000
N461        N  0.46832113  0.20792863  0.45235323    -0.38100
N462        N  0.53971971  0.21837710  0.40329223    -0.39700
N463        N  0.46310991  0.06226714  0.41365316    -0.37400
N464        N  0.53040018  0.07430472  0.35952503    -0.39800
N465        N  0.49009407  0.18207578  0.32948844    -0.39600
N466        N  0.55295377  0.19403149  0.27110850    -0.37200
N467        N  0.65324181  0.13217431  0.36624031    -0.38300
N468        N  0.58851990  0.11381417  0.42162064    -0.39900
C469        C  0.26786902  0.12652128  0.36362749    -0.04900
C470        C  0.29432387  0.14189552  0.36197268     0.09300
C471        C  0.29813947  0.16299865  0.34014594    -0.02200
C472        C  0.27555506  0.16903974  0.32035973    -0.00500
C473        C  0.24866785  0.15429628  0.32240812    -0.04100
C474        C  0.24514576  0.13252770  0.34378931     0.02900
C475        C  0.31851023  0.13598646  0.38302009     0.09700
C476        C  0.32535859  0.17873277  0.33822820     0.35600
C477        C  0.21798940  0.11676510  0.34590077     0.39100
C478        C  0.34202704  0.11818936  0.37491632    -0.04500
C479        C  0.36652525  0.11537436  0.39320558     0.02700
C480        C  0.36789663  0.13059540  0.41987389    -0.04100
C481        C  0.34333999  0.14707863  0.42860144    -0.00300
C482        C  0.31885235  0.14971479  0.41024764    -0.02900
C483        C  0.34102480  0.10299148  0.34744566     0.36400
C484        C  0.34342131  0.16256295  0.45583839     0.40000
C485        C  0.38999772  0.09627604  0.38454393     0.39100
C486        C  0.29417153  0.16723048  0.41902979     0.36100
C487        C  0.26402681  0.10478269  0.38603163     0.36700
C488        C  0.28039683  0.18984335  0.29720806     0.40000
N489        N  0.40850845  0.08091525  0.37731601    -0.38100
N490        N  0.34009446  0.09090486  0.32552013    -0.39700
N491        N  0.34312918  0.17498771  0.47755882    -0.37400
N492        N  0.27443936  0.18110370  0.42606433    -0.39800
N493        N  0.34706940  0.19127578  0.33671217    -0.39600
N494        N  0.28418592  0.20630076  0.27863394    -0.37200
N495        N  0.19640462  0.10402135  0.34758949    -0.38300
N496        N  0.26106802  0.08754999  0.40404561    -0.39900
C497        C  0.74421463  0.55544971  0.58499418    -0.04900
C498        C  0.72105736  0.54947943  0.60401445     0.09300
C499        C  0.70357228  0.52477361  0.59946272    -0.02200
C500        C  0.70849119  0.50667127  0.57535485    -0.00500
C501        C  0.73099981  0.51324654  0.55556508    -0.04100
C502        C  0.74934992  0.53726753  0.56099750     0.02900
C503        C  0.71421210  0.56992539  0.62819271     0.09700
C504        C  0.67989701  0.51855547  0.61919851     0.35600
C505        C  0.77378160  0.54312106  0.54207496     0.39100
C506        C  0.69181352  0.59055731  0.62476872    -0.04500
C507        C  0.68453762  0.60926222  0.64774795     0.02700
C508        C  0.70061131  0.60848025  0.67395453    -0.04100
C509        C  0.72321780  0.58785713  0.67724249    -0.00300
C510        C  0.72974350  0.56845150  0.65451481    -0.02900
C511        C  0.67641425  0.59268212  0.59738387     0.36400
C512        C  0.74035519  0.58704804  0.70362292     0.40000
C513        C  0.65958634  0.62838363  0.64476784     0.39100
C514        C  0.75252050  0.54694727  0.65806400     0.36100
C515        C  0.76219582  0.58085370  0.58969677     0.36700
C516        C  0.68940177  0.48214643  0.57028838     0.40000
N517        N  0.63955924  0.64345184  0.64250334    -0.38100
N518        N  0.66427829  0.59447993  0.57547829    -0.39700
N519        N  0.75408515  0.58639493  0.72464077    -0.37400
N520        N  0.77066665  0.52973468  0.66076539    -0.39800
N521        N  0.66095345  0.51373666  0.63491134    -0.39600
N522        N  0.67421251  0.46254570  0.56629562    -0.37200
N523        N  0.79334180  0.54771212  0.52705556    -0.38300
N524        N  0.77645378  0.60117832  0.59346775    -0.39900
C525        C  0.75077704  0.53448504  0.40457814    -0.04900
C526        C  0.72643846  0.55291303  0.40116745     0.09300
C527        C  0.70417675  0.55247891  0.42211294    -0.02200
C528        C  0.70616619  0.53380594  0.44626135    -0.00500
C529        C  0.73051008  0.51535565  0.44979027    -0.04100
C530        C  0.75277820  0.51566831  0.42879213     0.02900
C531        C  0.72361176  0.57259742  0.37534736     0.09700
C532        C  0.67928401  0.57158468  0.41892073     0.35600
C533        C  0.77822127  0.49748015  0.43269043     0.39100
C534        C  0.70882681  0.56293302  0.35037968    -0.04500
C535        C  0.70256637  0.58247039  0.32757814     0.02700
C536        C  0.71106133  0.61191697  0.32953942    -0.04100
C537        C  0.72727199  0.62117305  0.35388681    -0.00300
C538        C  0.73339819  0.60159896  0.37674838    -0.02900
C539        C  0.69945048  0.53294431  0.34856070     0.36400
C540        C  0.73636088  0.65120409  0.35618744     0.40000
C541        C  0.68758879  0.57216373  0.30191590     0.39100
C542        C  0.74893726  0.61148951  0.40222702     0.36100
C543        C  0.77397251  0.53538733  0.38343936     0.36700
C544        C  0.68292745  0.53340904  0.46745914     0.40000
N545        N  0.67575743  0.56390489  0.28138874    -0.38100
N546        N  0.69204520  0.50898366  0.34724691    -0.39700
N547        N  0.74360330  0.67516943  0.35811576    -0.37400
N548        N  0.76130619  0.61935171  0.42259295    -0.39800
N549        N  0.65949116  0.58690574  0.41638694    -0.39600
N550        N  0.66449130  0.53302734  0.48445188    -0.37200
N551        N  0.79855646  0.48300649  0.43587172    -0.38300
N552        N  0.79252565  0.53625024  0.36659495    -0.39900
C553        C  0.57243685  0.74538884  0.64029801    -0.04900
C554        C  0.54510754  0.73185581  0.64282673     0.09300
C555        C  0.53948224  0.71340823  0.66653334    -0.02200
C556        C  0.56134664  0.70765088  0.68715512    -0.00500
C557        C  0.58924643  0.72034891  0.68421546    -0.04100
C558        C  0.59447526  0.73968727  0.66090142     0.02900
C559        C  0.52227032  0.73571721  0.62002972     0.09700
C560        C  0.51125480  0.69963079  0.66917291     0.35600
C561        C  0.62237035  0.75406765  0.65824502     0.39100
C562        C  0.52188014  0.71719154  0.59574188    -0.04500
C563        C  0.49772813  0.71707760  0.57681760     0.02700
C564        C  0.47377702  0.73563438  0.58209386    -0.04100
C565        C  0.47513236  0.75544521  0.60553448    -0.00300
C566        C  0.49923565  0.75536398  0.62444594    -0.02900
C567        C  0.54581139  0.69719973  0.59115310     0.36400
C568        C  0.45159611  0.77583788  0.61047400     0.40000
C569        C  0.49684700  0.69642715  0.55316553     0.39100
C570        C  0.49990786  0.77474082  0.64917175     0.36100
C571        C  0.57788693  0.76495721  0.61630286     0.36700
C572        C  0.55531031  0.68740639  0.71051763     0.40000
N573        N  0.49621586  0.67986841  0.53435790    -0.38100
N574        N  0.56497541  0.68130224  0.58768064    -0.39700
N575        N  0.43275622  0.79200034  0.61447021    -0.37400
N576        N  0.50041710  0.79011673  0.66895511    -0.39800
N577        N  0.48872599  0.68869400  0.67115006    -0.39600
N578        N  0.55042174  0.67128532  0.72912809    -0.37200
N579        N  0.64463955  0.76551150  0.65614439    -0.38300
N580        N  0.58224692  0.78058313  0.59715687    -0.39900
C581        C  0.50593452  0.53452146  0.77865647    -0.04900
C582        C  0.52755686  0.53978884  0.79972289     0.09300
C583        C  0.53002150  0.52122316  0.82390612    -0.02200
C584        C  0.51220743  0.49644957  0.82610513    -0.00500
C585        C  0.49162090  0.49022416  0.80421282    -0.04100
C586        C  0.48799462  0.50978901  0.78086297     0.02900
C587        C  0.54990158  0.56282047  0.79477704     0.09700
C588        C  0.55156443  0.52721604  0.84607068     0.35600
C589        C  0.46711656  0.50356255  0.75813941     0.39100
C590        C  0.54825509  0.58973923  0.80915609    -0.04500
C591        C  0.57001587  0.61092056  0.80485050     0.02700
C592        C  0.59333752  0.60550401  0.78557339    -0.04100
C593        C  0.59470046  0.57836225  0.77108404    -0.00300
C594        C  0.57332239  0.55709147  0.77603377    -0.02900
C595        C  0.52415019  0.59552046  0.82847289     0.36400
C596        C  0.61748097  0.57236218  0.75020326     0.40000
C597        C  0.56875824  0.63785020  0.82103979     0.39100
C598        C  0.57545895  0.52903282  0.76189318     0.36100
C599        C  0.50290441  0.55409539  0.75419446     0.36700
C600        C  0.51526551  0.47720462  0.85082924     0.40000
N601        N  0.56778351  0.65929620  0.83402462    -0.38100
N602        N  0.50490981  0.60009117  0.84389802    -0.39700
N603        N  0.63561633  0.56750711  0.73357029    -0.37400
N604        N  0.57713041  0.50663213  0.75070942    -0.39800
N605        N  0.56869732  0.53218992  0.86374982    -0.39600
N606        N  0.51774153  0.46183512  0.87053311    -0.37200
N607        N  0.45051104  0.49853478  0.73997916    -0.38300
N608        N  0.50055995  0.56973431  0.73468668    -0.39900
C609        C  0.29499569  0.73733024  0.66439108    -0.04900
C610        C  0.29152607  0.72911011  0.63525289     0.09300
C611        C  0.26403982  0.72042665  0.62512370    -0.02200
C612        C  0.24041827  0.71803337  0.64446018    -0.00500
C613        C  0.24421775  0.72412222  0.67450372    -0.04100
C614        C  0.27146516  0.73537388  0.68383371     0.02900
C615        C  0.31727797  0.72847622  0.61553777     0.09700
C616        C  0.26038354  0.71303201  0.59479020     0.35600
C617        C  0.27561132  0.74541258  0.71332639     0.39100
C618        C  0.33643839  0.70452927  0.61632551    -0.04500
C619        C  0.36162007  0.70443626  0.59901830     0.02700
C620        C  0.36762528  0.72816653  0.58060125    -0.04100
C621        C  0.34813078  0.75182750  0.57931480    -0.00300
C622        C  0.32301982  0.75199706  0.59679604    -0.02900
C623        C  0.33030569  0.68011992  0.63523801     0.36400
C624        C  0.35462075  0.77656778  0.56098401     0.40000
C625        C  0.38137598  0.67988052  0.60011221     0.39100
C626        C  0.30339485  0.77663177  0.59606213     0.36100
C627        C  0.32320240  0.74716428  0.67449085     0.36700
C628        C  0.21261637  0.70858629  0.63300476     0.40000
N629        N  0.39716133  0.66031847  0.60096652    -0.38100
N630        N  0.32534522  0.66071143  0.65037749    -0.39700
N631        N  0.35992755  0.79631644  0.54641318    -0.37400
N632        N  0.28769249  0.79626707  0.59551308    -0.39800
N633        N  0.25752265  0.70718083  0.57059390    -0.39600
N634        N  0.19049369  0.70121748  0.62360145    -0.37200
N635        N  0.27910870  0.75349210  0.73679180    -0.38300
N636        N  0.34576743  0.75484037  0.68247005    -0.39900
C637        C  0.09794461  0.52547098  0.40134974    -0.04900
C638        C  0.12014075  0.54654063  0.40018922     0.09300
C639        C  0.13990787  0.54899176  0.42342867    -0.02200
C640        C  0.13702256  0.53110210  0.44806351    -0.00500
C641        C  0.11404574  0.51076635  0.44989068    -0.04100
C642        C  0.09490692  0.50756952  0.42607948     0.02900
C643        C  0.12285799  0.56643216  0.37458909     0.09700
C644        C  0.16318423  0.57015518  0.42200122     0.35600
C645        C  0.07150054  0.48657883  0.42731519     0.39100
C646        C  0.10997430  0.59421029  0.37515591    -0.04500
C647        C  0.11455917  0.61396969  0.35217746     0.02700
C648        C  0.13302065  0.60648718  0.32876877    -0.04100
C649        C  0.14503960  0.57804353  0.32787616    -0.00300
C650        C  0.13964390  0.55811862  0.35052436    -0.02900
C651        C  0.09240644  0.60260472  0.39980869     0.36400
C652        C  0.16421883  0.56942202  0.30450634     0.40000
C653        C  0.09971961  0.64177989  0.35253275     0.39100
C654        C  0.15197769  0.52913351  0.34949391     0.36100
C655        C  0.07798957  0.52261438  0.37719267     0.36700
C656        C  0.15828515  0.53313245  0.47123739     0.40000
N657        N  0.08774073  0.66388777  0.35281823    -0.38100
N658        N  0.07851895  0.60924537  0.41958054    -0.39700
N659        N  0.17953006  0.56247982  0.28590784    -0.37400
N660        N  0.16168478  0.50596259  0.34865892    -0.39800
N661        N  0.18171174  0.58707234  0.42084777    -0.39600
N662        N  0.17525668  0.53463236  0.48970247    -0.37200
N663        N  0.05284802  0.46978093  0.42822204    -0.38300
N664        N  0.06213586  0.52042083  0.35783879    -0.39900
C665        C  0.13173092  0.52090721  0.60262300    -0.04900
C666        C  0.11640624  0.54740773  0.60495086     0.09300
C667        C  0.09559268  0.55474000  0.58365347    -0.02200
C668        C  0.09116314  0.53650438  0.55951248    -0.00500
C669        C  0.10787579  0.51092954  0.55611215    -0.04100
C670        C  0.12752913  0.50273192  0.57831609     0.02900
C671        C  0.12337659  0.56855687  0.62874501     0.09700
C672        C  0.07923401  0.58154927  0.58622949     0.35600
C673        C  0.14444449  0.47626797  0.57566170     0.39100
C674        C  0.14897008  0.58539021  0.62721549    -0.04500
C675        C  0.15499591  0.60642155  0.64860048     0.02700
C676        C  0.13526129  0.61117201  0.67153728    -0.04100
C677        C  0.10974826  0.59422338  0.67319400    -0.00300
C678        C  0.10389734  0.57291410  0.65195767    -0.02900
C679        C  0.16894925  0.58132998  0.60330164     0.36400
C680        C  0.08897657  0.59947451  0.69616449     0.40000
C681        C  0.18200134  0.62260679  0.64742656     0.39100
C682        C  0.07762550  0.55568256  0.65374073     0.36100
C683        C  0.15238205  0.51269964  0.62495756     0.36700
C684        C  0.06899688  0.54391008  0.53835681     0.40000
N685        N  0.20362496  0.63536753  0.64658063    -0.38100
N686        N  0.18485224  0.57801403  0.58421627    -0.39700
N687        N  0.07237077  0.60382865  0.71443121    -0.37400
N688        N  0.05658776  0.54202095  0.65505293    -0.39800
N689        N  0.06616493  0.60290505  0.58845719    -0.39600
N690        N  0.05120689  0.54974905  0.52157128    -0.37200
N691        N  0.15784211  0.45509698  0.57355014    -0.38300
N692        N  0.16893623  0.50613148  0.64270342    -0.39900
C693        C  0.57743278  0.30761200  0.81621210    -0.04900
C694        C  0.55045860  0.30792960  0.80159476     0.09300
C695        C  0.54264827  0.28432366  0.78384632    -0.02200
C696        C  0.56255680  0.26160182  0.77892729    -0.00500
C697        C  0.59061020  0.26247284  0.79152546    -0.04100
C698        C  0.59744646  0.28484654  0.81133991     0.02900
C699        C  0.53130505  0.33421174  0.80271342     0.09700
C700        C  0.51433696  0.28390390  0.76999382     0.35600
C701        C  0.62551586  0.28526333  0.82567920     0.39100
C702        C  0.53338680  0.35535583  0.78067521    -0.04500
C703        C  0.51519293  0.37998813  0.78105538     0.02700
C704        C  0.49491197  0.38387218  0.80367905    -0.04100
C705        C  0.49250503  0.36244780  0.82550314    -0.00300
C706        C  0.51066554  0.33766146  0.82498403    -0.02900
C707        C  0.55429803  0.35163787  0.75749751     0.36400
C708        C  0.47192414  0.36625668  0.84890128     0.40000
C709        C  0.51674639  0.40093328  0.75759292     0.39100
C710        C  0.50821870  0.31564466  0.84730579     0.36100
C711        C  0.58494870  0.33128996  0.83545359     0.36700
C712        C  0.55404706  0.23714803  0.76103142     0.40000
N713        N  0.51785144  0.41758774  0.73883693    -0.38100
N714        N  0.57097634  0.34857520  0.73903763    -0.39700
N715        N  0.45549716  0.36928382  0.86758859    -0.37400
N716        N  0.50635211  0.29798771  0.86505728    -0.39800
N717        N  0.49174068  0.28363242  0.75896101    -0.39600
N718        N  0.54729166  0.21756493  0.74687478    -0.37200
N719        N  0.64786357  0.28548794  0.83721977    -0.38300
N720        N  0.59092224  0.35016439  0.85085215    -0.39900
C721        C  0.51697978  0.12160431  0.59407577    -0.04900
C722        C  0.51719895  0.14295500  0.61598658     0.09300
C723        C  0.49384447  0.16269163  0.61812711    -0.02200
C724        C  0.47004022  0.16062485  0.59904141    -0.00500
C725        C  0.46935468  0.13876372  0.57755125    -0.04100
C726        C  0.49318829  0.11959456  0.57478265     0.02900
C727        C  0.54223576  0.14534117  0.63660982     0.09700
C728        C  0.49434602  0.18520536  0.64007401     0.35600
C729        C  0.49281515  0.09715238  0.55280632     0.39100
C730        C  0.56809664  0.15912744  0.62776918    -0.04500
C731        C  0.59046703  0.16440601  0.64798774     0.02700
C732        C  0.58725131  0.15563305  0.67713955    -0.04100
C733        C  0.56173462  0.14103952  0.68580690    -0.00300
C734        C  0.53929739  0.13588328  0.66557695    -0.02900
C735        C  0.57136167  0.16844705  0.59793883     0.36400
C736        C  0.55785965  0.13282778  0.71589500     0.40000
C737        C  0.61679209  0.17902133  0.63879875     0.39100
C738        C  0.51282649  0.12149290  0.67467994     0.36100
C739        C  0.54106772  0.10143372  0.59174839     0.36700
C740        C  0.44642043  0.18143870  0.60124635     0.40000
N741        N  0.63775711  0.19074266  0.63148246    -0.38100
N742        N  0.57391388  0.17568966  0.57407591    -0.39700
N743        N  0.55474988  0.12644136  0.73993595    -0.37400
N744        N  0.49165825  0.11010669  0.68194538    -0.39800
N745        N  0.49473276  0.20309170  0.65763485    -0.39600
N746        N  0.42754813  0.19797292  0.60296109    -0.37200
N747        N  0.49253965  0.07928794  0.53521873    -0.38300
N748        N  0.56035402  0.08540597  0.58989765    -0.39900
C749        C  0.73942472  0.34752399  0.40072650    -0.04900
C750        C  0.71906041  0.32474698  0.39892353     0.09300
C751        C  0.69984131  0.31977866  0.42211424    -0.02200
C752        C  0.70128057  0.33708073  0.44724678    -0.00500
C753        C  0.72224268  0.35953186  0.44957540    -0.04100
C754        C  0.74113143  0.36480154  0.42595421     0.02900
C755        C  0.71734148  0.30596446  0.37249295     0.09700
C756        C  0.67836848  0.29682331  0.41993507     0.35600
C757        C  0.76308882  0.38727746  0.42786911     0.39100
C758        C  0.73145662  0.27874388  0.37197330    -0.04500
C759        C  0.72708965  0.25956560  0.34850767     0.02700
C760        C  0.70816445  0.26735558  0.32555899    -0.04100
C761        C  0.69536611  0.29534072  0.32543788    -0.00300
C762        C  0.69984689  0.31446722  0.34886303    -0.02900
C763        C  0.74958085  0.27006355  0.39622590     0.36400
C764        C  0.67770820  0.30466376  0.30107823     0.40000
C765        C  0.74097105  0.23127430  0.34880411     0.39100
C766        C  0.68565282  0.34260291  0.34919380     0.36100
C767        C  0.75873493  0.35302914  0.37658642     0.36700
C768        C  0.68050501  0.33205940  0.47031181     0.40000
N769        N  0.75211442  0.20873399  0.34899560    -0.38100
N770        N  0.76391397  0.26312997  0.41566937    -0.39700
N771        N  0.66365281  0.31226140  0.28168521    -0.37400
N772        N  0.67431939  0.36504025  0.34956538    -0.39800
N773        N  0.66127811  0.27851081  0.41809787    -0.39600
N774        N  0.66386986  0.32784888  0.48858933    -0.37200
N775        N  0.78058625  0.40523319  0.42941887    -0.38300
N776        N  0.77407442  0.35747878  0.35727145    -0.39900
C777        C  0.70174115  0.31277527  0.65612107    -0.04900
C778        C  0.70953351  0.30308977  0.62821060     0.09300
C779        C  0.71272067  0.27304450  0.62297154    -0.02200
C780        C  0.70783546  0.25280008  0.64541225    -0.00500
C781        C  0.69959169  0.26248222  0.67319274    -0.04100
C782        C  0.69692085  0.29253591  0.67858153     0.02900
C783        C  0.71373562  0.32442577  0.60403478     0.09700
C784        C  0.72012781  0.26296532  0.59418143     0.35600
C785        C  0.68957963  0.30260972  0.70739748     0.39100
C786        C  0.74200663  0.33223712  0.59512643    -0.04500
C787        C  0.74592887  0.35060201  0.57092385     0.02700
C788        C  0.72159512  0.36150308  0.55576480    -0.04100
C789        C  0.69334896  0.35488935  0.56556308    -0.00300
C790        C  0.68940873  0.33613444  0.58941270    -0.02900
C791        C  0.76700953  0.32092824  0.61064410     0.36400
C792        C  0.66832751  0.36730014  0.55091578     0.40000
C793        C  0.77497321  0.35786605  0.56126970     0.39100
C794        C  0.66032299  0.32817448  0.59842365     0.36100
C795        C  0.69816863  0.34357088  0.66152618     0.36700
C796        C  0.71017193  0.22193744  0.63962597     0.40000
N797        N  0.79816273  0.36369168  0.55359414    -0.38100
N798        N  0.78688507  0.31181820  0.62309467    -0.39700
N799        N  0.64842361  0.37738958  0.53928875    -0.37400
N800        N  0.63713714  0.32175146  0.60562306    -0.39800
N801        N  0.72598273  0.25499142  0.57117308    -0.39600
N802        N  0.71198119  0.19730948  0.63503720    -0.37200
N803        N  0.68389606  0.31058754  0.73044972    -0.38300
N804        N  0.69511287  0.36814390  0.66573103    -0.39900
C805        C  0.29587859  0.15979904  0.65608511    -0.04900
C806        C  0.29300365  0.13703071  0.63587436     0.09300
C807        C  0.26861880  0.11851398  0.63731849    -0.02200
C808        C  0.24687127  0.12313948  0.65842258    -0.00500
C809        C  0.24900366  0.14687050  0.67773218    -0.04100
C810        C  0.27399892  0.16481037  0.67677948     0.02900
C811        C  0.31595658  0.13277591  0.61323030     0.09700
C812        C  0.26556563  0.09520840  0.61647957     0.35600
C813        C  0.27752165  0.18836878  0.69737341     0.39100
C814        C  0.33664568  0.11033804  0.61623835    -0.04500
C815        C  0.36026153  0.10847785  0.59689197     0.02700
C816        C  0.36391125  0.12958196  0.57488208    -0.04100
C817        C  0.34301162  0.15185830  0.57173433    -0.00300
C818        C  0.31865162  0.15287121  0.59024389    -0.02900
C819        C  0.33431166  0.08990929  0.64005774     0.36400
C820        C  0.34815669  0.17561364  0.55179790     0.40000
C821        C  0.38141926  0.08532372  0.60028869     0.39100
C822        C  0.29682552  0.17530940  0.58638807     0.36100
C823        C  0.32138554  0.17830408  0.65542454     0.36700
C824        C  0.22185589  0.10407660  0.65945888     0.40000
N825        N  0.39837430  0.06694385  0.60305264    -0.38100
N826        N  0.33241022  0.07365687  0.65909371    -0.39700
N827        N  0.35247564  0.19511629  0.53659748    -0.37400
N828        N  0.27935463  0.19315502  0.58335058    -0.39800
N829        N  0.26322797  0.07665251  0.59978153    -0.39600
N830        N  0.20198474  0.08873529  0.66034643    -0.37200
N831        N  0.28025687  0.20720099  0.71371319    -0.38300
N832        N  0.34165203  0.19313386  0.65481586    -0.39900
C833        C  0.12355561  0.34650607  0.40265243    -0.04900
C834        C  0.10999355  0.31909476  0.40195524     0.09300
C835        C  0.09222614  0.31041293  0.42517646    -0.02200
C836        C  0.08881272  0.32854830  0.44952326    -0.00500
C837        C  0.10363737  0.35555460  0.45114844    -0.04100
C838        C  0.12073665  0.36454838  0.42721904     0.02900
C839        C  0.11634339  0.29824096  0.37792358     0.09700
C840        C  0.07791817  0.28235686  0.42417974     0.35600
C841        C  0.13705599  0.39144462  0.42835167     0.39100
C842        C  0.13703032  0.27602814  0.38231031    -0.04500
C843        C  0.14311437  0.25607433  0.36006673     0.02700
C844        C  0.12916651  0.25863955  0.33283963    -0.04100
C845        C  0.10802976  0.28059125  0.32860969    -0.00300
C846        C  0.10164034  0.30031052  0.35114400    -0.02900
C847        C  0.15243558  0.27399958  0.40969274     0.36400
C848        C  0.09355697  0.28358023  0.30083020     0.40000
C849        C  0.16324081  0.23236153  0.36553223     0.39100
C850        C  0.08026475  0.32304489  0.34672077     0.36100
C851        C  0.14115527  0.35573011  0.37830481     0.36700
C852        C  0.06993231  0.31906693  0.47280508     0.40000
N853        N  0.17916541  0.21335781  0.36982766    -0.38100
N854        N  0.16478197  0.27243683  0.43149678    -0.39700
N855        N  0.08197432  0.28595029  0.27867860    -0.37400
N856        N  0.06329558  0.34128290  0.34321058    -0.39800
N857        N  0.06666256  0.25992281  0.42333532    -0.39600
N858        N  0.05493670  0.31115068  0.49127498    -0.37200
N859        N  0.15020384  0.41282771  0.42921794    -0.38300
N860        N  0.15503120  0.36308772  0.35876663    -0.39900
C861        C  0.11563718  0.30462657  0.65695025    -0.04900
C862        C  0.11601036  0.29716185  0.62735353     0.09300
C863        C  0.12146624  0.26816945  0.61906850    -0.02200
C864        C  0.12736619  0.24690222  0.64028365    -0.00500
C865        C  0.12830861  0.25467754  0.66979095    -0.04100
C866        C  0.12214245  0.28349055  0.67813223     0.02900
C867        C  0.11202414  0.31998798  0.60465623     0.09700
C868        C  0.12162154  0.26044904  0.58863073     0.35600
C869        C  0.12356751  0.29156580  0.70844629     0.39100
C870        C  0.13626350  0.33577612  0.59459333    -0.04500
C871        C  0.13320556  0.35513729  0.57110284     0.02700
C872        C  0.10602987  0.35832731  0.55727575    -0.04100
C873        C  0.08148810  0.34374204  0.56832105    -0.00300
C874        C  0.08445069  0.32473543  0.59212471    -0.02900
C875        C  0.16452016  0.33131651  0.60785203     0.36400
C876        C  0.05324276  0.34824386  0.55507713     0.40000
C877        C  0.15818942  0.37108529  0.56053043     0.39100
C878        C  0.05930473  0.30965418  0.60349454     0.36100
C879        C  0.10889536  0.33414074  0.66548258     0.36700
C880        C  0.13268307  0.21706164  0.63179481     0.40000
N881        N  0.17805838  0.38392879  0.55212976    -0.38100
N882        N  0.18704041  0.32766045  0.61844992    -0.39700
N883        N  0.03068613  0.35193810  0.54457022    -0.37400
N884        N  0.03927171  0.29765827  0.61270914    -0.39800
N885        N  0.12177054  0.25441885  0.56431683    -0.39600
N886        N  0.13677687  0.19322345  0.62504072    -0.37200
N887        N  0.12490256  0.29794138  0.73263817    -0.38300
N888        N  0.10336112  0.35768072  0.67224703    -0.39900
C889        C  0.30172115  0.35843470  0.18326142    -0.04900
C890        C  0.30548250  0.33851853  0.20617258     0.09300
C891        C  0.32966688  0.34113367  0.22482214    -0.02200
C892        C  0.34945838  0.36424055  0.22123999    -0.00500
C893        C  0.34468389  0.38527520  0.19939525    -0.04100
C894        C  0.32116656  0.38180886  0.17993144     0.02900
C895        C  0.28331374  0.31537267  0.21129155     0.09700
C896        C  0.33363264  0.32046764  0.24823239     0.35600
C897        C  0.31708375  0.40220484  0.15627708     0.39100
C898        C  0.28498231  0.28875301  0.19636197    -0.04500
C899        C  0.26417782  0.26683849  0.20147366     0.02700
C900        C  0.24141224  0.27155527  0.22147398    -0.04100
C901        C  0.23961649  0.29850774  0.23610030    -0.00300
C902        C  0.26051287  0.32026451  0.23103134    -0.02900
C903        C  0.30835217  0.28394132  0.17591538     0.36400
C904        C  0.21589004  0.30419178  0.25598101     0.40000
C905        C  0.26702300  0.23904183  0.18705450     0.39100
C906        C  0.25855670  0.34782352  0.24608614     0.36100
C907        C  0.27745425  0.35511502  0.16345467     0.36700
C908        C  0.37400605  0.36694448  0.24080736     0.40000
N909        N  0.26939802  0.21684981  0.17558469    -0.38100
N910        N  0.32702550  0.28028913  0.15958385    -0.39700
N911        N  0.19697499  0.30865254  0.27184147    -0.37400
N912        N  0.25700091  0.36979691  0.25809778    -0.39800
N913        N  0.33667513  0.30403141  0.26697921    -0.39600
N914        N  0.39370597  0.36901669  0.25628361    -0.37200
N915        N  0.31388814  0.41848048  0.13741238    -0.38300
N916        N  0.25812615  0.35235714  0.14763269    -0.39900
C917        C  0.31174861  0.52059582  0.22886137    -0.04900
C918        C  0.31055591  0.54026196  0.20544152     0.09300
C919        C  0.32870433  0.53602530  0.18121126    -0.02200
C920        C  0.34710687  0.51149244  0.17989710    -0.00500
C921        C  0.34732999  0.49117646  0.20282213    -0.04100
C922        C  0.33001987  0.49610360  0.22754072     0.02900
C923        C  0.28934380  0.56487625  0.20626566     0.09700
C924        C  0.32790416  0.55659118  0.15743389     0.35600
C925        C  0.33099655  0.47586726  0.25165494     0.39100
C926        C  0.29780444  0.59202610  0.21730390    -0.04500
C927        C  0.27697698  0.61414145  0.22152383     0.02700
C928        C  0.24711715  0.60901958  0.21518325    -0.04100
C929        C  0.23922759  0.58221153  0.20220485    -0.00300
C930        C  0.26023977  0.56027728  0.19798098    -0.02900
C931        C  0.32793717  0.59676906  0.22531264     0.36400
C932        C  0.20960904  0.57707484  0.19268213     0.40000
C933        C  0.28662412  0.64169074  0.23329713     0.39100
C934        C  0.25185572  0.53252459  0.18572057     0.36100
C935        C  0.29378139  0.52542813  0.25417544     0.36700
C936        C  0.36476639  0.50642567  0.15443596     0.40000
N937        N  0.29454815  0.66365709  0.24251806    -0.38100
N938        N  0.35196145  0.60048510  0.23173419    -0.39700
N939        N  0.18602695  0.57288201  0.18501793    -0.37400
N940        N  0.24529051  0.51033535  0.17600295    -0.39800
N941        N  0.32727323  0.57305468  0.13848666    -0.39600
N942        N  0.37883904  0.50228546  0.13412083    -0.37200
N943        N  0.33183708  0.45967932  0.27083166    -0.38300
N944        N  0.27942318  0.52935991  0.27432952    -0.39900
C945        C  0.29741546  0.35172209  0.81620015    -0.04900
C946        C  0.30513944  0.32980372  0.79638236     0.09300
C947        C  0.33150721  0.33188061  0.78104591    -0.02200
C948        C  0.34907697  0.35681694  0.78386075    -0.00500
C949        C  0.34071495  0.37951831  0.80275397    -0.04100
C950        C  0.31528948  0.37631339  0.81966104     0.02900
C951        C  0.28414515  0.30595183  0.78969089     0.09700
C952        C  0.33999434  0.30865698  0.76164038     0.35600
C953        C  0.30736159  0.39838381  0.84060176     0.39100
C954        C  0.26570350  0.30852685  0.76542242    -0.04500
C955        C  0.24461875  0.28712443  0.75970217     0.07500
C956        C  0.24252919  0.26212600  0.77762758    -0.04100
C957        C  0.26133697  0.25959185  0.80191679    -0.00300
C958        C  0.28195349  0.28148877  0.80789532    -0.02900
C959        C  0.26855069  0.33334493  0.74621246     0.36400
C960        C  0.26004361  0.23432617  0.82064511     0.40000
C961        C  0.22428519  0.29176386  0.73603199     0.39100
C962        C  0.30129768  0.27873514  0.83258834     0.36100
C963        C  0.27048365  0.34938409  0.83229445     0.36700
C964        C  0.37458299  0.35985006  0.76572151     0.40000
N965        N  0.20802387  0.29558166  0.71724398    -0.38100
N966        N  0.27108069  0.35299816  0.73078276    -0.39700
N967        N  0.25900444  0.21430207  0.83577075    -0.37400
N968        N  0.31677498  0.27654615  0.85225569    -0.39800
N969        N  0.34671138  0.29004458  0.74623706    -0.39600
N970        N  0.39483340  0.36230783  0.75111730    -0.37200
N971        N  0.30104023  0.41596922  0.85731812    -0.38300
N972        N  0.24897156  0.34747475  0.84507227    -0.39900
C973        C  0.32842307  0.53779238  0.80172306    -0.04900
C974        C  0.30165025  0.53617542  0.78694792     0.09300
C975        C  0.29288858  0.50965274  0.77461400    -0.02200
C976        C  0.31070737  0.48478464  0.77702201    -0.00500
C977        C  0.33734137  0.48587248  0.79274024    -0.04100
C978        C  0.34613960  0.51283475  0.80481436     0.02900
C979        C  0.28235234  0.56237251  0.78453180     0.09700
C980        C  0.26517407  0.50792239  0.75964710     0.35600
C981        C  0.37290077  0.51504171  0.82130448     0.39100
C982        C  0.28380556  0.58048375  0.75990296    -0.04500
C983        C  0.26461850  0.60428871  0.75696995     0.02700
C984        C  0.24348904  0.60987574  0.77848832    -0.04100
C985        C  0.24257260  0.59214923  0.80344250    -0.00300
C986        C  0.26193928  0.56850377  0.80645636    -0.02900
C987        C  0.30456921  0.57406511  0.73721537     0.36400
C988        C  0.22211552  0.59863352  0.82633462     0.40000
C989        C  0.26590728  0.62235161  0.73121615     0.39100
C990        C  0.26058605  0.55007594  0.83190028     0.36100
C991        C  0.33748435  0.56524763  0.81411313     0.36700
C992        C  0.30161068  0.45836066  0.76250102     0.40000
N993        N  0.26695801  0.63678794  0.71070544    -0.38100
N994        N  0.32106009  0.56880019  0.71908529    -0.39700
N995        N  0.20600816  0.60390449  0.84478724    -0.37400
N996        N  0.25956890  0.53530025  0.85216150    -0.39800
N997        N  0.24302435  0.50651452  0.74782700    -0.39600
N998        N  0.29425498  0.43731897  0.75095857    -0.37200
N999        N  0.39426373  0.51696598  0.83443041    -0.38300
N1000       N  0.34459631  0.58720668  0.82396242    -0.39900
C1001       C  0.82864492  0.21979050  0.08820597    -0.04900
C1002       C  0.81902885  0.24084985  0.10817873     0.09300
C1003       C  0.83312203  0.26800031  0.10945104    -0.02200
C1004       C  0.85749256  0.27361743  0.09181357    -0.00500
C1005       C  0.86809037  0.25203981  0.07287819    -0.04100
C1006       C  0.85305924  0.22537320  0.07054626     0.02900
C1007       C  0.79565669  0.23374145  0.12964920     0.09700
C1008       C  0.82277593  0.28995369  0.12941673     0.35600
C1009       C  0.86338499  0.20321310  0.05078698     0.39100
C1010       C  0.80340612  0.22243188  0.15691763    -0.04500
C1011       C  0.78204580  0.21742997  0.17823531     0.02700
C1012       C  0.75209626  0.22254400  0.17211543    -0.04100
C1013       C  0.74451370  0.23377058  0.14432946    -0.00300
C1014       C  0.76623728  0.23945463  0.12340949    -0.02900
C1015       C  0.83366312  0.21566943  0.16290366     0.36400
C1016       C  0.71452941  0.24049200  0.13720129     0.40000
C1017       C  0.79151275  0.20696812  0.20637972     0.39100
C1018       C  0.75841791  0.25134213  0.09533871     0.36100
C1019       C  0.81388230  0.19206146  0.08649944     0.36700
C1020       C  0.87115098  0.30191709  0.09267474     0.40000
N1021       N  0.79939321  0.19897853  0.22884487    -0.38100
N1022       N  0.85776769  0.21012047  0.16749528    -0.39700
N1023       N  0.69065154  0.24586638  0.13134539    -0.37400
N1024       N  0.75226135  0.26083525  0.07292922    -0.39800
N1025       N  0.81443061  0.30738289  0.14539248    -0.39600
N1026       N  0.88150680  0.32477531  0.09331148    -0.37200
N1027       N  0.87165329  0.18559544  0.03497176    -0.38300
N1028       N  0.80208100  0.16993510  0.08516531    -0.39900
C1029       C  0.07135669  0.26167463  0.13703755    -0.04900
C1030       C  0.04567885  0.24510190  0.13445099     0.09300
C1031       C  0.04153635  0.22093403  0.15280316    -0.02200
C1032       C  0.06333583  0.21258058  0.17266739    -0.00500
C1033       C  0.08922292  0.22897839  0.17524036    -0.04100
C1034       C  0.09303956  0.25369060  0.15737869     0.02900
C1035       C  0.02299227  0.25227249  0.11204892     0.09700
C1036       C  0.01451728  0.20478212  0.15139531     0.35600
C1037       C  0.11892485  0.27134695  0.16039204     0.39100
C1038       C  0.02013064  0.23472236  0.08715587    -0.04500
C1039       C  0.99597572  0.23809351  0.06847884     0.02700
C1040       C  0.97473763  0.25960407  0.07416773    -0.04100
C1041       C  0.97908753  0.27877821  0.09769593    -0.00300
C1042       C  0.00277816  0.27479174  0.11683909    -0.02900
C1043       C  0.04170487  0.21251200  0.08133200     0.36400
C1044       C  0.95965199  0.30316017  0.10189619     0.40000
C1045       C  0.99230518  0.21829922  0.04435511     0.39100
C1046       C  0.00584090  0.29327398  0.14204818     0.36100
C1047       C  0.07528861  0.28710081  0.11893305     0.36700
C1048       C  0.05955269  0.18622667  0.18952663     0.40000
N1049       N  0.98939690  0.20247621  0.02512947    -0.38100
N1050       N  0.05897564  0.19483029  0.07677562    -0.39700
N1051       N  0.94470034  0.32305217  0.10533648    -0.37400
N1052       N  0.00829431  0.30801319  0.16216937    -0.39800
N1053       N  0.99286657  0.19208534  0.15030171    -0.39600
N1054       N  0.05661648  0.16511857  0.20282875    -0.37200
N1055       N  0.13956587  0.28546130  0.16283943    -0.38300
N1056       N  0.07828476  0.30753461  0.10463930    -0.39900
C1057       C  0.76275104  0.62263725  0.87371662    -0.04900
C1058       C  0.79180099  0.63127043  0.86936450     0.09300
C1059       C  0.79961000  0.64607950  0.84377528    -0.02200
C1060       C  0.77834889  0.65285935  0.82290382    -0.00500
C1061       C  0.74921225  0.64432881  0.82720731    -0.04100
C1062       C  0.74146462  0.62902982  0.85258590     0.02900
C1063       C  0.81426590  0.62628465  0.89218062     0.09700
C1064       C  0.82953700  0.65485569  0.83924031     0.35600
C1065       C  0.71134189  0.62146942  0.85777453     0.39100
C1066       C  0.82881679  0.59937258  0.89406101    -0.04500
C1067       C  0.85314558  0.59634688  0.91241325     0.02700
C1068       C  0.86328602  0.62038711  0.92834719    -0.04100
C1069       C  0.84760097  0.64671339  0.92791271    -0.00300
C1070       C  0.82291848  0.64954535  0.91006523    -0.02900
C1071       C  0.81935841  0.57518229  0.87636758     0.36400
C1072       C  0.85772808  0.67134411  0.94465302     0.40000
C1073       C  0.86773093  0.56854170  0.91502779     0.39100
C1074       C  0.80694709  0.67670970  0.90923607     0.36100
C1075       C  0.75468909  0.60814152  0.90040092     0.36700
C1076       C  0.78642823  0.66894406  0.79708731     0.40000
N1077       N  0.87916953  0.54627342  0.91741335    -0.38100
N1078       N  0.81179245  0.55587060  0.86225617    -0.39700
N1079       N  0.86588235  0.69098967  0.95795990    -0.37400
N1080       N  0.79410954  0.69831934  0.90851255    -0.39800
N1081       N  0.85339641  0.66190312  0.83573850    -0.39600
N1082       N  0.79276650  0.68194578  0.77659211    -0.37200
N1083       N  0.68727878  0.61559559  0.86198652    -0.38300
N1084       N  0.74832894  0.59665468  0.92176582    -0.39900
C1085       C  0.99611506  0.61114906  0.87711351    -0.04900
C1086       C  0.01651072  0.63312682  0.88308768     0.09300
C1087       C  0.01383315  0.64968696  0.90858577    -0.02200
C1088       C  0.99038539  0.64488711  0.92768676    -0.00500
C1089       C  0.96938819  0.62326117  0.92148360    -0.04100
C1090       C  0.97267606  0.60618762  0.89615698     0.02900
C1091       C  0.04001357  0.63982216  0.86169480     0.09700
C1092       C  0.03485179  0.67231867  0.91466460     0.35600
C1093       C  0.95200480  0.58341761  0.88944669     0.39100
C1094       C  0.03489832  0.66020170  0.83944042    -0.04500
C1095       C  0.05692880  0.66677534  0.81928282     0.02700
C1096       C  0.08442442  0.65298002  0.82120796    -0.04100
C1097       C  0.08928336  0.63218184  0.84332105    -0.00300
C1098       C  0.06719896  0.62579540  0.86355939    -0.02900
C1099       C  0.00688734  0.67456975  0.83746634     0.36400
C1100       C  0.11729830  0.61803653  0.84603163     0.40000
C1101       C  0.05094599  0.68735123  0.79616383     0.39100
C1102       C  0.07253570  0.60515746  0.88672290     0.36100
C1103       C  0.99903292  0.59402645  0.85093253     0.36700
C1104       C  0.98702255  0.66356074  0.95271311     0.40000
N1105       N  0.04619895  0.70377998  0.77775194    -0.38100
N1106       N  0.98454002  0.68602419  0.83597023    -0.39700
N1107       N  0.13958118  0.60659952  0.84828669    -0.37400
N1108       N  0.07675564  0.58879442  0.90530870    -0.39800
N1109       N  0.05162566  0.69038735  0.91943639    -0.39600
N1110       N  0.98429255  0.67854036  0.97261508    -0.37200
N1111       N  0.93564112  0.56525736  0.88371813    -0.38300
N1112       N  0.00144211  0.58046316  0.83000420    -0.39900
C1113       C  0.03431270  0.85354140  0.27254046    -0.04900
C1114       C  0.03250988  0.83243966  0.29464006     0.09300
C1115       C  0.01224902  0.83595569  0.31724552    -0.02200
C1116       C  0.99452207  0.86098659  0.31827772    -0.00500
C1117       C  0.99719950  0.88272303  0.29680412    -0.04100
C1118       C  0.01683449  0.87864678  0.27365705     0.02900
C1119       C  0.05267107  0.80693424  0.29420208     0.09700
C1120       C  0.01015563  0.81408322  0.33975043     0.35600
C1121       C  0.01882467  0.90011595  0.25070905     0.39100
C1122       C  0.08181500  0.81026979  0.30319144    -0.04500
C1123       C  0.10189533  0.78740623  0.29943391     0.02700
C1124       C  0.09287304  0.76101039  0.28680807    -0.04100
C1125       C  0.06337751  0.75727790  0.27908591    -0.00300
C1126       C  0.04335294  0.78017873  0.28272400    -0.02900
C1127       C  0.09129324  0.83770968  0.31531930     0.36400
C1128       C  0.05364022  0.72990327  0.26711023     0.40000
C1129       C  0.13218864  0.79178910  0.30680991     0.39100
C1130       C  0.01335802  0.77660545  0.27372702     0.36100
C1131       C  0.05438997  0.84940937  0.24870888     0.36700
C1132       C  0.97445706  0.86492498  0.34212002     0.40000
N1133       N  0.15637211  0.79551436  0.31255083    -0.38100
N1134       N  0.09873680  0.85968857  0.32488087    -0.39700
N1135       N  0.04571501  0.70809847  0.25758142    -0.37400
N1136       N  0.98942260  0.77377097  0.26655830    -0.39800
N1137       N  0.00848688  0.79658848  0.35768131    -0.39600
N1138       N  0.95842683  0.86811653  0.36112079    -0.37200
N1139       N  0.02041715  0.91723963  0.23241327    -0.38300
N1140       N  0.07044561  0.84600726  0.22976613    -0.39900
C1141       C  0.04048848  0.01769818  0.31332640    -0.04900
C1142       C  0.03230144  0.03952210  0.29349174     0.09300
C1143       C  0.00624792  0.03684089  0.27765505    -0.02200
C1144       C  0.98879424  0.01192440  0.28094761    -0.00500
C1145       C  0.99763142  0.98929039  0.29984858    -0.04100
C1146       C  0.02331167  0.99261220  0.31646402     0.02900
C1147       C  0.05253179  0.06408899  0.28754397     0.09700
C1148       C  0.99808190  0.05925241  0.25707027     0.35600
C1149       C  0.03214600  0.97031466  0.33693113     0.39100
C1150       C  0.07575709  0.05995839  0.26817098    -0.04500
C1151       C  0.09595948  0.08236459  0.26340429     0.02700
C1152       C  0.09293702  0.10930178  0.27792579    -0.04100
C1153       C  0.06916107  0.11355890  0.29687760    -0.00300
C1154       C  0.04901306  0.09098432  0.30160378    -0.02900
C1155       C  0.07854230  0.03261676  0.25281463     0.36400
C1156       C  0.06581592  0.14080181  0.31223611     0.40000
C1157       C  0.11929251  0.07778729  0.24278099     0.39100
C1158       C  0.02460553  0.09534019  0.32091997     0.36100
C1159       C  0.06708156  0.02084394  0.32997026     0.36700
C1160       C  0.96257984  0.00907502  0.26367288     0.40000
N1161       N  0.13789159  0.07402960  0.22637665    -0.38100
N1162       N  0.08057922  0.01082287  0.24055294    -0.39700
N1163       N  0.06315644  0.16255085  0.32446409    -0.37400
N1164       N  0.00503290  0.09883975  0.33620834    -0.39800
N1165       N  0.99165364  0.07709884  0.24058399    -0.39600
N1166       N  0.94162631  0.00683314  0.24995734    -0.37200
N1167       N  0.03929971  0.95251955  0.35318224    -0.38300
N1168       N  0.08833216  0.02343128  0.34315102    -0.39900
C1169       C  0.83062447  0.83220413  0.71325532    -0.04900
C1170       C  0.80459966  0.82936805  0.69734280     0.09300
C1171       C  0.79645652  0.85110447  0.67741912    -0.02200
C1172       C  0.81367001  0.87617003  0.67417998    -0.00500
C1173       C  0.83905435  0.87983938  0.69117351    -0.04100
C1174       C  0.84763085  0.85753763  0.71050201     0.02900
C1175       C  0.78384109  0.80544887  0.70422890     0.09700
C1176       C  0.76967839  0.84805692  0.66106707     0.35600
C1177       C  0.87254137  0.86157539  0.72932822     0.39100
C1178       C  0.76240312  0.81007885  0.72548377    -0.04500
C1179       C  0.74248331  0.78797994  0.73224801     0.02700
C1180       C  0.74381031  0.76098810  0.71773692    -0.04100
C1181       C  0.76485839  0.75657749  0.69592799    -0.00300
C1182       C  0.78491942  0.77879061  0.68927227    -0.02900
C1183       C  0.76070045  0.83783641  0.74021880     0.36400
C1184       C  0.76642855  0.72898089  0.68093909     0.40000
C1185       C  0.72004220  0.79338836  0.75365473     0.39100
C1186       C  0.80670798  0.77431317  0.66711185     0.36100
C1187       C  0.83924728  0.80946012  0.73328312     0.36700
C1188       C  0.80490941  0.89836821  0.65359336     0.40000
N1189       N  0.70212368  0.79760510  0.77068607    -0.38100
N1190       N  0.75930684  0.86001886  0.75185882    -0.39700
N1191       N  0.76763821  0.70696515  0.66895915    -0.37400
N1192       N  0.82410592  0.77078039  0.64941251    -0.39800
N1193       N  0.74823835  0.84552583  0.64818591    -0.39600
N1194       N  0.79781053  0.91610367  0.63725561    -0.37200
N1195       N  0.89219316  0.86486060  0.74463374    -0.38300
N1196       N  0.84614789  0.79124483  0.74917194    -0.39900
C1197       C  0.80035944  0.01281203  0.72606462    -0.04900
C1198       C  0.79906642  0.03443332  0.70442481     0.09300
C1199       C  0.81695544  0.03210268  0.67974897    -0.02200
C1200       C  0.83567760  0.00796935  0.67647423    -0.00500
C1201       C  0.83643586  0.98594214  0.69781239    -0.04100
C1202       C  0.81899270  0.98871724  0.72282809     0.02900
C1203       C  0.77895806  0.05979996  0.70804633     0.09700
C1204       C  0.81576573  0.05442054  0.65760794     0.35600
C1205       C  0.82065896  0.96702863  0.74560815     0.39100
C1206       C  0.78759506  0.08373225  0.72492837    -0.04500
C1207       C  0.76781959  0.10640919  0.73082286     0.02700
C1208       C  0.73929157  0.10583587  0.71905501    -0.04100
C1209       C  0.73101746  0.08203975  0.70142274    -0.00300
C1210       C  0.75071276  0.05907970  0.69617391    -0.02900
C1211       C  0.81685035  0.08467504  0.73667406     0.36400
C1212       C  0.70233883  0.08113718  0.68835235     0.40000
C1213       C  0.77652428  0.12931467  0.75053243     0.39100
C1214       C  0.74182872  0.03438570  0.67885416     0.36100
C1215       C  0.78225712  0.01532442  0.75161716     0.36700
C1216       C  0.85341390  0.00534576  0.65070598     0.40000
N1217       N  0.78355275  0.14736524  0.76646143    -0.38100
N1218       N  0.84022382  0.08536681  0.74593136    -0.39700
N1219       N  0.67944321  0.08037011  0.67796695    -0.37400
N1220       N  0.73478604  0.01464947  0.66506229    -0.39800
N1221       N  0.81471934  0.07223994  0.63994032    -0.39600
N1222       N  0.86760716  0.00324138  0.63016398    -0.37200
N1223       N  0.82209516  0.94975301  0.76378317    -0.38300
N1224       N  0.76779101  0.01741151  0.77196930    -0.39900
C1225       C  0.22017497  0.02816226  0.90479541    -0.04900
C1226       C  0.20032706  0.05156208  0.90452233     0.09300
C1227       C  0.18295720  0.05688504  0.92910953    -0.02200
C1228       C  0.18545202  0.03898388  0.95381007    -0.00500
C1229       C  0.20576745  0.01584734  0.95435156    -0.04100
C1230       C  0.22312528  0.01056250  0.92969311     0.02900
C1231       C  0.19783434  0.07081986  0.87840762     0.09700
C1232       C  0.16257059  0.08095912  0.92901947     0.35600
C1233       C  0.24495817  0.98783188  0.93031037     0.39100
C1234       C  0.17322197  0.06902548  0.86019758    -0.04500
C1235       C  0.17010264  0.08823688  0.83656024     0.02700
C1236       C  0.19219072  0.10856586  0.83019126    -0.04100
C1237       C  0.21714380  0.10984156  0.84796869    -0.00300
C1238       C  0.21976189  0.09134247  0.87223518    -0.02900
C1239       C  0.15094855  0.04754657  0.86602465     0.36400
C1240       C  0.24037082  0.12988003  0.84099457     0.40000
C1241       C  0.14329768  0.08828604  0.81997009     0.39100
C1242       C  0.24483638  0.09370299  0.89115679     0.36100
C1243       C  0.23765265  0.02229008  0.87938063     0.36700
C1244       C  0.16656037  0.04408917  0.97842402     0.40000
N1245       N  0.12167561  0.08855307  0.80713549    -0.38100
N1246       N  0.13321885  0.03040275  0.87075556    -0.39700
N1247       N  0.25900802  0.14570510  0.83529373    -0.37400
N1248       N  0.26483608  0.09553811  0.90627022    -0.39800
N1249       N  0.14623517  0.10008359  0.92887611    -0.39600
N1250       N  0.15150132  0.04815938  0.99804320    -0.37200
N1251       N  0.26245692  0.96977297  0.93088375    -0.38300
N1252       N  0.25160604  0.01771220  0.85908208    -0.39900
C1253       C  0.18900519  0.09667671  0.12320399    -0.04900
C1254       C  0.20924641  0.07423616  0.12846886     0.09300
C1255       C  0.22485491  0.07362107  0.15476431    -0.02200
C1256       C  0.22054158  0.09558916  0.17558807    -0.00500
C1257       C  0.19954564  0.11759405  0.17078412    -0.04100
C1258       C  0.18352820  0.11776812  0.14456918     0.02900
C1259       C  0.21335640  0.05089697  0.10636953     0.09700
C1260       C  0.24479274  0.04992222  0.16064733     0.35600
C1261       C  0.15999907  0.13837544  0.14025346     0.39100
C1262       C  0.23714954  0.05193503  0.08721245    -0.04500
C1263       C  0.23895302  0.03204986  0.06410643     0.02700
C1264       C  0.21661932  0.01150032  0.05963586    -0.04100
C1265       C  0.19373436  0.00936552  0.07982912    -0.00300
C1266       C  0.19222214  0.02892852  0.10324748    -0.02900
C1267       C  0.25901503  0.07434349  0.09049905     0.36400
C1268       C  0.17073648  0.98832103  0.07550362     0.40000
C1269       C  0.26369475  0.03284781  0.04471834     0.39100
C1270       C  0.16823404  0.02735976  0.12350367     0.36100
C1271       C  0.17348157  0.09776638  0.09582822     0.36700
C1272       C  0.23801971  0.09568845  0.20177506     0.40000
N1273       N  0.28351640  0.03332677  0.02935560    -0.38100
N1274       N  0.27638504  0.09229723  0.09310367    -0.39700
N1275       N  0.15234635  0.97157405  0.07201298    -0.37400
N1276       N  0.14910576  0.02631239  0.13968633    -0.39800
N1277       N  0.26053070  0.03087970  0.16540200    -0.39600
N1278       N  0.25200875  0.09585404  0.22263154    -0.37200
N1279       N  0.14101764  0.15457164  0.13697850    -0.38300
N1280       N  0.16119254  0.09860966  0.07395267    -0.39900
C1281       C  0.60379935  0.81984807  0.91758941    -0.04900
C1282       C  0.62720367  0.82426123  0.89847712     0.09300
C1283       C  0.64561078  0.84844608  0.90215922    -0.02200
C1284       C  0.64152985  0.86735102  0.92584801    -0.00500
C1285       C  0.61896716  0.86204303  0.94590060    -0.04100
C1286       C  0.59950242  0.83883885  0.94104471     0.02900
C1287       C  0.63355020  0.80212927  0.87576256     0.09700
C1288       C  0.66949933  0.85303392  0.88225281     0.35600
C1289       C  0.57504336  0.83442579  0.96031594     0.39100
C1290       C  0.62134488  0.80473581  0.84784806    -0.04500
C1291       C  0.62629837  0.78296521  0.82698581     0.02700
C1292       C  0.64342404  0.75846058  0.83404187    -0.04100
C1293       C  0.65600026  0.75612348  0.86190044    -0.00300
C1294       C  0.65104760  0.77790999  0.88268718    -0.02900
C1295       C  0.60393735  0.82998443  0.84059451     0.36400
C1296       C  0.67364892  0.73104604  0.86936853     0.40000
C1297       C  0.61484066  0.78638069  0.79788414     0.39100
C1298       C  0.66393801  0.77550361  0.91129780     0.36100
C1299       C  0.58487966  0.79497832  0.91375141     0.36700
C1300       C  0.66158262  0.89116957  0.93044707     0.40000
N1301       N  0.60589141  0.78907787  0.77459356    -0.38100
N1302       N  0.59011906  0.85018973  0.83479804    -0.39700
N1303       N  0.68773666  0.71105759  0.87529879    -0.37400
N1304       N  0.67420491  0.77372197  0.93413073    -0.39800
N1305       N  0.68857170  0.85657236  0.86635490    -0.39600
N1306       N  0.67760044  0.91016977  0.93408566    -0.37200
N1307       N  0.55549700  0.83101133  0.97565750    -0.38300
N1308       N  0.56996319  0.77500516  0.91072671    -0.39900
C1309       C  0.60573805  0.84437916  0.10014995    -0.04900
C1310       C  0.62627027  0.82161620  0.10098991     0.09300
C1311       C  0.64526254  0.81755437  0.07742576    -0.02200
C1312       C  0.64348271  0.83578507  0.05294219    -0.00500
C1313       C  0.62257995  0.85839347  0.05172937    -0.04100
C1314       C  0.60401197  0.86287495  0.07571519     0.02900
C1315       C  0.62877031  0.80213589  0.12692822     0.09700
C1316       C  0.66675050  0.79447417  0.07845475     0.35600
C1317       C  0.58258006  0.88597517  0.07503800     0.39100
C1318       C  0.61147912  0.77695374  0.12915809    -0.04500
C1319       C  0.61645654  0.75672239  0.15171518     0.02700
C1320       C  0.63881429  0.76158274  0.17223704    -0.04100
C1321       C  0.65577568  0.78712524  0.17011284    -0.00300
C1322       C  0.65044454  0.80747101  0.14785033    -0.02900
C1323       C  0.58884635  0.77174108  0.10790547     0.36400
C1324       C  0.68033119  0.79145834  0.18934593     0.40000
C1325       C  0.59857554  0.73090507  0.15371604     0.39100
C1326       C  0.66776798  0.83369819  0.14595426     0.36100
C1327       C  0.58623988  0.84854199  0.12439253     0.36700
C1328       C  0.66383554  0.83161809  0.02932509     0.40000
N1329       N  0.58432581  0.71027848  0.15522800    -0.38100
N1330       N  0.57075035  0.76773843  0.09094315    -0.39700
N1331       N  0.70026696  0.79478687  0.20426923    -0.37400
N1332       N  0.68148158  0.85467866  0.14440594    -0.39800
N1333       N  0.68390552  0.77610278  0.07937202    -0.39600
N1334       N  0.68001953  0.82826365  0.01047711    -0.37200
N1335       N  0.56557231  0.90450127  0.07453834    -0.38300
N1336       N  0.57061195  0.85176741  0.14371466    -0.39900
C1337       C  0.83492809  0.26588970  0.88289753    -0.04900
C1338       C  0.82127684  0.23846604  0.88265249     0.09300
C1339       C  0.83097450  0.21649740  0.90173562    -0.02200
C1340       C  0.85436921  0.22185785  0.92077885    -0.00500
C1341       C  0.86869686  0.24892131  0.92024793    -0.04100
C1342       C  0.85883824  0.27097843  0.90135851     0.02900
C1343       C  0.79679969  0.23271693  0.86201011     0.09700
C1344       C  0.81743861  0.18810083  0.90108916     0.35600
C1345       C  0.87340385  0.29887393  0.90083420     0.39100
C1346       C  0.80261640  0.22689622  0.83270633    -0.04500
C1347       C  0.77962967  0.22254751  0.81287790     0.02700
C1348       C  0.75014489  0.22222400  0.82252211    -0.04100
C1349       C  0.74466746  0.22858557  0.85229303    -0.00300
C1350       C  0.76787834  0.23390773  0.87165303    -0.02900
C1351       C  0.83256056  0.22482930  0.82305125     0.36400
C1352       C  0.71531558  0.23016880  0.86360596     0.40000
C1353       C  0.78703675  0.21893301  0.78255450     0.39100
C1354       C  0.76210720  0.24057480  0.90181973     0.36100
C1355       C  0.82443672  0.28873791  0.86389601     0.36700
C1356       C  0.86443967  0.19918474  0.94021459     0.40000
N1357       N  0.79317015  0.21635608  0.75839835    -0.38100
N1358       N  0.85640438  0.22297660  0.81536935    -0.39700
N1359       N  0.69202962  0.23146644  0.87293478    -0.37400
N1360       N  0.75768572  0.24584608  0.92590046    -0.39800
N1361       N  0.80671154  0.16540331  0.90048115    -0.39600
N1362       N  0.87254142  0.18122459  0.95582896    -0.37200
N1363       N  0.88499374  0.32114872  0.90036561    -0.38300
N1364       N  0.81592668  0.30686107  0.84868907    -0.39900
C1365       C  0.04632788  0.24693133  0.83517136    -0.04900
C1366       C  0.04834704  0.23714151  0.86405344     0.09300
C1367       C  0.07310134  0.22158631  0.87320511    -0.02200
C1368       C  0.09478852  0.21389735  0.85310214    -0.00500
C1369       C  0.09232097  0.22267247  0.82372054    -0.04100
C1370       C  0.06850568  0.24028004  0.81521518     0.02900
C1371       C  0.02328629  0.24103053  0.88422847     0.09700
C1372       C  0.07582208  0.21291561  0.90331194     0.35600
C1373       C  0.06698373  0.25208379  0.78608656     0.39100
C1374       C  0.00378017  0.21783482  0.88860127    -0.04500
C1375       C  0.97940113  0.22150165  0.90658221     0.02700
C1376       C  0.97443925  0.24835560  0.92045828    -0.04100
C1377       C  0.99432849  0.27133589  0.91671055    -0.00300
C1378       C  0.01871668  0.26768747  0.89855878    -0.02900
C1379       C  0.00864205  0.19027391  0.87420445     0.36400
C1380       C  0.98905937  0.29903309  0.93060691     0.40000
C1381       C  0.95933260  0.19758406  0.91080059     0.39100
C1382       C  0.03893191  0.29139690  0.89425113     0.36100
C1383       C  0.02096395  0.26318995  0.82581651     0.36700
C1384       C  0.11874289  0.19565441  0.86259688     0.40000
N1385       N  0.94328369  0.17856226  0.91416702    -0.38100
N1386       N  0.01265082  0.16830674  0.86275646    -0.39700
N1387       N  0.98477841  0.32114634  0.94166943    -0.37400
N1388       N  0.05508158  0.31029574  0.89069966    -0.39800
N1389       N  0.07797704  0.20612261  0.92735691    -0.39600
N1390       N  0.13779759  0.18107417  0.87021004    -0.37200
N1391       N  0.06587472  0.26162882  0.76290929    -0.38300
N1392       N  0.00069259  0.27610232  0.81835741    -0.39900
C1393       C  0.79732955  0.63036954  0.16445907    -0.04900
C1394       C  0.79635587  0.64265437  0.13648013     0.09300
C1395       C  0.77212540  0.65944020  0.12811857    -0.02200
C1396       C  0.74931909  0.66467501  0.14786905    -0.00500
C1397       C  0.75079442  0.65352538  0.17654213    -0.04100
C1398       C  0.77487627  0.63596820  0.18451425     0.02900
C1399       C  0.82178707  0.63940579  0.11646531     0.09700
C1400       C  0.77110364  0.67198183  0.09929398     0.35600
C1401       C  0.77658352  0.62328782  0.21325375     0.39100
C1402       C  0.82181491  0.61805174  0.09459919    -0.04500
C1403       C  0.84625816  0.61465423  0.07638721     0.02700
C1404       C  0.87106733  0.63243023  0.08019356    -0.04100
C1405       C  0.87053594  0.65437899  0.10168549    -0.00300
C1406       C  0.84599475  0.65786439  0.11958602    -0.02900
C1407       C  0.79671909  0.59937615  0.09113755     0.36400
C1408       C  0.89495509  0.67402471  0.10503508     0.40000
C1409       C  0.84609711  0.59224057  0.05438225     0.39100
C1410       C  0.84547390  0.68069300  0.14119773     0.36100
C1411       C  0.82164050  0.61197350  0.17257244     0.36700
C1412       C  0.72501986  0.68266223  0.13879362     0.40000
N1413       N  0.84587129  0.57440644  0.03676111    -0.38100
N1414       N  0.77662447  0.58454826  0.08843607    -0.39700
N1415       N  0.91445323  0.68963170  0.10774595    -0.37400
N1416       N  0.84496214  0.69893629  0.15838522    -0.39800
N1417       N  0.77036210  0.68196952  0.07629448    -0.39600
N1418       N  0.70561265  0.69691068  0.13144827    -0.37200
N1419       N  0.77806508  0.61325142  0.23620448    -0.38300
N1420       N  0.84100156  0.59720261  0.17891430    -0.39900
C1421       C  0.01115310  0.60657503  0.11088140    -0.04900
C1422       C  0.02615086  0.63328327  0.11190861     0.09300
C1423       C  0.01746493  0.65629135  0.09353702    -0.02200
C1424       C  0.99326184  0.65291510  0.07505298    -0.00500
C1425       C  0.97721225  0.62684564  0.07547641    -0.04100
C1426       C  0.98646907  0.60352401  0.09304380     0.02900
C1427       C  0.04958558  0.63782572  0.13396520     0.09700
C1428       C  0.03259792  0.68386733  0.09464554     0.35600
C1429       C  0.97021544  0.57657059  0.09314632     0.39100
C1430       C  0.07906157  0.63911297  0.12561973    -0.04500
C1431       C  0.10079995  0.64453768  0.14653022     0.02700
C1432       C  0.09322674  0.64758319  0.17594965    -0.04100
C1433       C  0.06398899  0.64476944  0.18447309    -0.00300
C1434       C  0.04212585  0.64079583  0.16347771    -0.02900
C1435       C  0.08692655  0.63499781  0.09552637     0.36400
C1436       C  0.05648706  0.64550926  0.21494171     0.40000
C1437       C  0.13092917  0.64722843  0.13782825     0.39100
C1438       C  0.01183801  0.64052853  0.17213133     0.36100
C1439       C  0.02072101  0.58251259  0.12883822     0.36700
C1440       C  0.98400784  0.67674509  0.05661730     0.40000
N1441       N  0.15498975  0.64940252  0.13094790    -0.38100
N1442       N  0.09314587  0.63170077  0.07149150    -0.39700
N1443       N  0.05055635  0.64549803  0.23927297    -0.37400
N1444       N  0.98765462  0.64043839  0.17893041    -0.39800
N1445       N  0.04466045  0.70587594  0.09555661    -0.39600
N1446       N  0.97660483  0.69571627  0.04187505    -0.37200
N1447       N  0.95718187  0.55510455  0.09323996    -0.38300
N1448       N  0.02838966  0.56340288  0.14326220    -0.39900
C1449       C  0.03449551  0.85535398  0.66759679    -0.04900
C1450       C  0.03326536  0.83869846  0.69322107     0.09300
C1451       C  0.01191210  0.84502156  0.71417507    -0.02200
C1452       C  0.99266274  0.86858122  0.71010597    -0.00500
C1453       C  0.99401321  0.88550911  0.68458128    -0.04100
C1454       C  0.01471545  0.87844018  0.66312480     0.02900
C1455       C  0.05496754  0.81498461  0.69877738     0.09700
C1456       C  0.01015297  0.82748232  0.74022147     0.35600
C1457       C  0.01537110  0.89453267  0.63615097     0.39100
C1458       C  0.07989669  0.82064011  0.71568712    -0.04500
C1459       C  0.09907898  0.79787245  0.72314932     0.02700
C1460       C  0.09374096  0.76927672  0.71333394    -0.04100
C1461       C  0.06921264  0.76380973  0.69570212    -0.00300
C1462       C  0.04990942  0.78660982  0.68845828    -0.02900
C1463       C  0.08574163  0.84998426  0.72543330     0.36400
C1464       C  0.06297922  0.73445670  0.68627941     0.40000
C1465       C  0.12447846  0.80395716  0.74081191     0.39100
C1466       C  0.02450226  0.78087328  0.67077765     0.36100
C1467       C  0.05649992  0.84901333  0.64608858     0.36700
C1468       C  0.97269457  0.87645993  0.73303364     0.40000
N1469       N  0.14469347  0.80872837  0.75497047    -0.38100
N1470       N  0.09044695  0.87341955  0.73310247    -0.39700
N1471       N  0.05794207  0.71099330  0.67891031    -0.37400
N1472       N  0.00422537  0.77641999  0.65661587    -0.39800
N1473       N  0.00878686  0.81337013  0.76092587    -0.39600
N1474       N  0.95699781  0.88294629  0.75146053    -0.37200
N1475       N  0.01591139  0.90692507  0.61435216    -0.38300
N1476       N  0.07412276  0.84400064  0.62897341    -0.39900
C1477       C  0.02863354  0.02310351  0.66851167    -0.04900
C1478       C  0.02558794  0.03962192  0.69397546     0.09300
C1479       C  0.00303277  0.03321330  0.71358129    -0.02200
C1480       C  0.98487028  0.00902983  0.70874593    -0.00500
C1481       C  0.98886781  0.99154022  0.68390854    -0.04100
C1482       C  0.00999127  0.99946309  0.66322922     0.02900
C1483       C  0.04785171  0.06205851  0.70120546     0.09700
C1484       C  0.99927892  0.05088476  0.73925927     0.35600
C1485       C  0.01233241  0.98363169  0.63625862     0.39100
C1486       C  0.04492492  0.09072929  0.69098955    -0.04500
C1487       C  0.06681610  0.11139003  0.69673092     0.02700
C1488       C  0.09173594  0.10357102  0.71318803    -0.04100
C1489       C  0.09483891  0.07438124  0.72267122    -0.00300
C1490       C  0.07288469  0.05388564  0.71683428    -0.02900
C1491       C  0.01939852  0.09882432  0.67434386     0.36400
C1492       C  0.12041223  0.06508181  0.73863401     0.40000
C1493       C  0.06415097  0.14031623  0.68449148     0.39100
C1494       C  0.07601198  0.02413287  0.72683136     0.36100
C1495       C  0.05182207  0.02980253  0.64836067     0.36700
C1496       C  0.96330126  0.00117165  0.73023290     0.40000
N1497       N  0.06208691  0.16333203  0.67459284    -0.38100
N1498       N  0.99901533  0.10523103  0.66106618    -0.39700
N1499       N  0.14087768  0.05733046  0.75105551    -0.37400
N1500       N  0.07838924  0.00039226  0.73473905    -0.39800
N1501       N  0.99620658  0.06500363  0.75972874    -0.39600
N1502       N  0.94612879  0.99478134  0.74735640    -0.37200
N1503       N  0.01421985  0.97160245  0.61437924    -0.38300
N1504       N  0.07050805  0.03517717  0.63252165    -0.39900
C1505       C  0.80561720  0.85408763  0.32620556    -0.04900
C1506       C  0.80630167  0.83579240  0.30175988     0.09300
C1507       C  0.82672615  0.84088600  0.27958718    -0.02200
C1508       C  0.84540083  0.86506947  0.28116084    -0.00500
C1509       C  0.84363555  0.88425770  0.30491751    -0.04100
C1510       C  0.82403862  0.87844871  0.32765077     0.02900
C1511       C  0.78403373  0.81246292  0.29829276     0.09700
C1512       C  0.82791919  0.82163426  0.25479390     0.35600
C1513       C  0.82274688  0.89768050  0.35245274     0.39100
C1514       C  0.75605091  0.81965621  0.28821410    -0.04500
C1515       C  0.73514968  0.79777455  0.28359792     0.02700
C1516       C  0.74234129  0.76802585  0.28833770    -0.04100
C1517       C  0.77023082  0.76127843  0.30002044    -0.00300
C1518       C  0.79090069  0.78340757  0.30473335    -0.02900
C1519       C  0.74900646  0.84977981  0.28194579     0.36400
C1520       C  0.77789273  0.73173882  0.30792766     0.40000
C1521       C  0.70647551  0.80648361  0.27368962     0.39100
C1522       C  0.81951028  0.77633934  0.31601303     0.36100
C1523       C  0.78567337  0.84793440  0.34967611     0.36700
C1524       C  0.86528208  0.87108551  0.25757017     0.40000
N1525       N  0.68360621  0.81374878  0.26608669    -0.38100
N1526       N  0.74346395  0.87378849  0.27695036    -0.39700
N1527       N  0.78427821  0.70826066  0.31427394    -0.37400
N1528       N  0.84236776  0.77078273  0.32493938    -0.39800
N1529       N  0.82889584  0.80617234  0.23509694    -0.39600
N1530       N  0.88109652  0.87594643  0.23873486    -0.37200
N1531       N  0.82176039  0.91308686  0.37219104    -0.38300
N1532       N  0.76981381  0.84290156  0.36842305    -0.39900
C1533       C  0.80264016  0.01545961  0.27323966    -0.04900
C1534       C  0.81015727  0.04103129  0.28812519     0.09300
C1535       C  0.83533148  0.04163957  0.30553227    -0.02200
C1536       C  0.85226715  0.01628088  0.30921267    -0.00500
C1537       C  0.84423576  0.99017560  0.29508702    -0.04100
C1538       C  0.81973993  0.99026588  0.27634986     0.02900
C1539       C  0.79086192  0.06706379  0.28595767     0.09700
C1540       C  0.84356602  0.06844231  0.31978036     0.35600
C1541       C  0.81235974  0.96471035  0.25951156     0.39100
C1542       C  0.76919049  0.07175980  0.30699958    -0.04500
C1543       C  0.74938849  0.09494403  0.30383966     0.02700
C1544       C  0.75075153  0.11314932  0.27926370    -0.04100
C1545       C  0.77271459  0.10857718  0.25835076    -0.00300
C1546       C  0.79297093  0.08587227  0.26195640    -0.02900
C1547       C  0.76686416  0.05218752  0.33151428     0.36400
C1548       C  0.77325488  0.12583348  0.23203945     0.40000
C1549       C  0.72779055  0.10019847  0.32601142     0.39100
C1550       C  0.81557935  0.08132718  0.24059859     0.36100
C1551       C  0.77701354  0.01505061  0.25485464     0.36700
C1552       C  0.87728585  0.01703710  0.32833845     0.40000
N1553       N  0.71069066  0.10440980  0.34383914    -0.38100
N1554       N  0.76503713  0.03644831  0.35097937    -0.39700
N1555       N  0.77348579  0.13923161  0.21082478    -0.37400
N1556       N  0.83364361  0.07772610  0.22358800    -0.39800
N1557       N  0.85002086  0.08994684  0.33098779    -0.39600
N1558       N  0.89724756  0.01783023  0.34360092    -0.37200
N1559       N  0.80647746  0.94433355  0.24610027    -0.38300
N1560       N  0.75658670  0.01474295  0.24020153    -0.39900
C1561       C  0.60056947  0.03180856  0.90393152    -0.04900
C1562       C  0.62255690  0.05301405  0.90206970     0.09300
C1563       C  0.64337680  0.05543178  0.92436041    -0.02200
C1564       C  0.64220375  0.03679445  0.94851361    -0.00500
C1565       C  0.61970399  0.01604737  0.95092021    -0.04100
C1566       C  0.59899148  0.01346309  0.92841405     0.02900
C1567       C  0.62442103  0.07268818  0.87640972     0.09700
C1568       C  0.66595262  0.07731490  0.92243290     0.35600
C1569       C  0.57543547  0.99274957  0.93090494     0.39100
C1570       C  0.61093115  0.10018323  0.87698542    -0.04500
C1571       C  0.61556743  0.12012523  0.85424323     0.02700
C1572       C  0.63387077  0.11264777  0.83081224    -0.04100
C1573       C  0.64658584  0.08462595  0.82990740    -0.00300
C1574       C  0.64172214  0.06472938  0.85258455    -0.02900
C1575       C  0.59277675  0.10809250  0.90136794     0.36400
C1576       C  0.66617349  0.07673965  0.80660012     0.40000
C1577       C  0.60135969  0.14825831  0.85496307     0.39100
C1578       C  0.65528941  0.03628678  0.85194871     0.36100
C1579       C  0.57947884  0.02914986  0.88072241     0.36700
C1580       C  0.66468956  0.03849055  0.97053514     0.40000
N1581       N  0.59003751  0.17070129  0.85556168    -0.38100
N1582       N  0.57831635  0.11433290  0.92085971    -0.39700
N1583       N  0.68185511  0.07050875  0.78805951    -0.37400
N1584       N  0.66607830  0.01358638  0.85149776    -0.39800
N1585       N  0.68384122  0.09487265  0.92086112    -0.39600
N1586       N  0.68267873  0.03973429  0.98803737    -0.37200
N1587       N  0.55657534  0.97628442  0.93290984    -0.38300
N1588       N  0.56272818  0.02708132  0.86211728    -0.39900
C1589       C  0.61260562  0.06948608  0.15593070    -0.04900
C1590       C  0.62947585  0.06888190  0.13047325     0.09300
C1591       C  0.65240715  0.08881521  0.12699774    -0.02200
C1592       C  0.65875920  0.10901491  0.14898216    -0.00500
C1593       C  0.64164219  0.11006635  0.17447237    -0.04100
C1594       C  0.61854721  0.09009346  0.17784070     0.02900
C1595       C  0.62277936  0.04796072  0.10659369     0.09700
C1596       C  0.66914563  0.08887688  0.10038732     0.35600
C1597       C  0.60008942  0.09149544  0.20318538     0.39100
C1598       C  0.60228000  0.05547557  0.08513526    -0.04500
C1599       C  0.59862694  0.03772494  0.06055718     0.02700
C1600       C  0.61602443  0.01260392  0.05686897    -0.04100
C1601       C  0.63562938  0.00440741  0.07911575    -0.00300
C1602       C  0.63873837  0.02192502  0.10400268    -0.02900
C1603       C  0.58559486  0.08205667  0.08797682     0.36400
C1604       C  0.65394980  0.97898368  0.07575768     0.40000
C1605       C  0.57683360  0.04538894  0.03908748     0.39100
C1606       C  0.65898138  0.01364271  0.12667321     0.36100
C1607       C  0.58879618  0.04918620  0.15920491     0.36700
C1608       C  0.68348534  0.12826842  0.14549327     0.40000
N1609       N  0.55944634  0.05147594  0.02197119    -0.38100
N1610       N  0.57235812  0.10330089  0.09028051    -0.39700
N1611       N  0.66860088  0.95873446  0.07302741    -0.37400
N1612       N  0.67505596  0.00698630  0.14481700    -0.39800
N1613       N  0.68233204  0.08900826  0.07908288    -0.39600
N1614       N  0.70318803  0.14360580  0.14272106    -0.37200
N1615       N  0.58523659  0.09265226  0.22333553    -0.38300
N1616       N  0.56977884  0.03296378  0.16163197    -0.39900
C1617       C  0.21760117  0.80746762  0.84699811    -0.04900
C1618       C  0.20649178  0.80266003  0.87505114     0.09300
C1619       C  0.19162084  0.77659763  0.88118264    -0.02200
C1620       C  0.18703728  0.75588299  0.85918018    -0.00500
C1621       C  0.19799481  0.76069745  0.83098540    -0.04100
C1622       C  0.21362629  0.78642473  0.82508343     0.02900
C1623       C  0.21004374  0.82501351  0.89835731     0.09700
C1624       C  0.18082931  0.77126048  0.91020342     0.35600
C1625       C  0.22432362  0.79192682  0.79608869     0.39100
C1626       C  0.18783007  0.84553280  0.90353205    -0.04500
C1627       C  0.18938240  0.86406461  0.92785905     0.02700
C1628       C  0.21308878  0.86194985  0.94726061    -0.04100
C1629       C  0.23605962  0.84253608  0.94108706    -0.00300
C1630       C  0.23459161  0.82424545  0.91665974    -0.02900
C1631       C  0.16297520  0.84688108  0.88421856     0.36400
C1632       C  0.26120634  0.84129098  0.96005148     0.40000
C1633       C  0.16585977  0.88417940  0.93369704     0.39100
C1634       C  0.25803772  0.80410083  0.91066655     0.36100
C1635       C  0.23245497  0.83443595  0.84057748     0.36700
C1636       C  0.17093268  0.72957570  0.86558089     0.40000
N1637       N  0.14707033  0.90023093  0.93830109    -0.38100
N1638       N  0.14319752  0.84785676  0.86872682    -0.39700
N1639       N  0.28120458  0.84040183  0.97526272    -0.37400
N1640       N  0.27678746  0.78808805  0.90580465    -0.39800
N1641       N  0.17233340  0.76706285  0.93339859    -0.39600
N1642       N  0.15796852  0.70866497  0.87063289    -0.37200
N1643       N  0.23278146  0.79631357  0.77291609    -0.38300
N1644       N  0.24418528  0.85604592  0.83547910    -0.39900
C1645       C  0.19476216  0.81320362  0.07905940    -0.04900
C1646       C  0.21225745  0.82017748  0.10314119     0.09300
C1647       C  0.22962315  0.84536897  0.10242235    -0.02200
C1648       C  0.22965800  0.86346787  0.07763214    -0.00500
C1649       C  0.21200677  0.85660302  0.05339720    -0.04100
C1650       C  0.19425791  0.83146274  0.05451814     0.02900
C1651       C  0.21066356  0.80175614  0.12990125     0.09700
C1652       C  0.24742841  0.85260328  0.12731301     0.35600
C1653       C  0.17436880  0.82487116  0.03098832     0.39100
C1654       C  0.22864902  0.77712158  0.13313147    -0.04500
C1655       C  0.22434816  0.75771769  0.15651442     0.02700
C1656       C  0.20194118  0.76289624  0.17687198    -0.04100
C1657       C  0.18511032  0.78858145  0.17439366    -0.00300
C1658       C  0.18936180  0.80775257  0.15093506    -0.02900
C1659       C  0.25090337  0.77126091  0.11174119     0.36400
C1660       C  0.16331319  0.79542679  0.19600735     0.40000
C1661       C  0.24191166  0.73161398  0.15852270     0.39100
C1662       C  0.17113292  0.83329612  0.14780633     0.36100
C1663       C  0.17698067  0.78721049  0.07972654     0.36700
C1664       C  0.24839594  0.88874599  0.07698394     0.40000
N1665       N  0.25592139  0.71078123  0.16009929    -0.38100
N1666       N  0.26864782  0.76660372  0.09465019    -0.39700
N1667       N  0.14591868  0.80090399  0.21321906    -0.37400
N1668       N  0.15661547  0.85365990  0.14512854    -0.39800
N1669       N  0.26159696  0.85833020  0.14722522    -0.39600
N1670       N  0.26331502  0.90894738  0.07653318    -0.37200
N1671       N  0.15843818  0.81965362  0.01228585    -0.38300
N1672       N  0.16289952  0.76642409  0.08028563    -0.39900
loop_ 
_geom_bond_atom_site_label_1 
_geom_bond_atom_site_label_2 
_geom_bond_distance 
_geom_bond_site_symmetry_2 
_ccdc_geom_bond_type 
C1            N2   1.361       .  A
C1            N6   1.357       .  A
C1         C1649   1.496       .  S
N2            C3   1.363       .  A
C3            N4   1.363   1_554  A
C3           C47   1.476       .  S
N4            C5   1.360       .  A
C5            N6   1.356   1_556  A
C5         C1628   1.487       .  S
C7            N8   1.356   1_565  A
C7           N12   1.360       .  A
C7         C1600   1.491   1_565  S
N8            C9   1.355   1_544  A
C9           N10   1.359       .  A
C9         C1565   1.484   1_565  S
N10          C11   1.361   1_556  A
C11          N12   1.361       .  A
C11          C39   1.473       .  S
C13          N14   1.360       .  A
C13          N18   1.357       .  A
C13        C1537   1.494       .  S
N14          C15   1.362       .  A
C15          N16   1.358       .  A
C15          C59   1.468       .  S
N16          C17   1.357       .  A
C17          N18   1.355       .  A
C17        C1509   1.478       .  S
C19          N20   1.358       .  A
C19          N24   1.357       .  A
C19        C1481   1.484       .  S
N20          C21   1.360       .  A
C21          N22   1.363       .  A
C21          C51   1.477       .  S
N22          C23   1.363       .  A
C23          N24   1.357       .  A
C23        C1453   1.489       .  S
C25          N26   1.355       .  A
C25          N30   1.357       .  A
C25        C1425   1.477       .  S
N26          C27   1.357       .  A
C27          N28   1.361       .  A
C27        C1404   1.494       .  S
N28          C29   1.362       .  A
C29          N30   1.361       .  A
C29          C63   1.473   1_554  S
C31          N32   1.353       .  A
C31          N36   1.360       .  A
C31        C1341   1.480       .  S
N32          C33   1.354       .  A
C33          N34   1.360       .  A
C33        C1376   1.480       .  S
N34          C35   1.363       .  A
C35          N36   1.363       .  A
C35          C71   1.477   1_556  S
C37          N38   1.358       .  A
C37          N42   1.355       .  A
C37        C1285   1.484       .  S
N38          C39   1.362   1_556  A
C39          N40   1.363       .  A
N40          C41   1.361       .  A
C41          N42   1.355   1_554  A
C41        C1313   1.492       .  S
C43          N44   1.355   1_565  A
C43          N48   1.361       .  A
C43        C1264   1.482   1_565  S
N44          C45   1.355   1_544  A
C45          N46   1.360       .  A
C45        C1229   1.489   1_565  S
N46          C47   1.362   1_556  A
C47          N48   1.363       .  A
C49          N50   1.360       .  A
C49          N54   1.355       .  A
C49        C1201   1.487       .  S
N50          C51   1.363       .  A
C51          N52   1.362       .  A
N52          C53   1.361       .  A
C53          N54   1.356       .  A
C53        C1173   1.488       .  S
C55          N56   1.357       .  A
C55          N60   1.358       .  A
C55        C1145   1.487       .  S
N56          C57   1.356       .  A
C57          N58   1.359       .  A
C57        C1117   1.485       .  S
N58          C59   1.361       .  A
C59          N60   1.357       .  A
C61          N62   1.355       .  A
C61          N66   1.355       .  A
C61        C1068   1.475       .  S
N62          C63   1.359       .  A
C63          N64   1.362       .  A
N64          C65   1.363       .  A
C65          N66   1.358       .  A
C65        C1089   1.496       .  S
C67          N68   1.361       .  A
C67          N72   1.362       .  A
C67        C1040   1.495       .  S
N68          C69   1.359       .  A
C69          N70   1.359       .  A
C69        C1005   1.488       .  S
N70          C71   1.360       .  A
C71          N72   1.362       .  A
C73          N74   1.363       .  A
C73          N78   1.357       .  A
C73         C977   1.505       .  S
N74          C75   1.363       .  A
C75          N76   1.360       .  A
C75         C180   1.475       .  S
N76          C77   1.359       .  A
C77          N78   1.356       .  A
C77         C949   1.490       .  S
C79          N80   1.359       .  A
C79          N84   1.355       .  A
C79         C921   1.480       .  S
N80          C81   1.361       .  A
C81          N82   1.362       .  A
C81         C258   1.471       .  S
N82          C83   1.359       .  A
C83          N84   1.355       .  A
C83         C893   1.485       .  S
C85          N86   1.356       .  A
C85          N90   1.355       .  A
C85         C872   1.477       .  S
N86          C87   1.360       .  A
C87          N88   1.364       .  A
C87         C151   1.475       .  S
N88          C89   1.364       .  A
C89          N90   1.357       .  A
C89         C837   1.500       .  S
O91         C107   1.273       .  A
O91         Zn97   2.008       .  S
C92         C809   1.492       .  S
C92         O108   1.272       .  A
C92         O105   1.278       .  A
O93         C106   1.275       .  A
O93        Cd100   2.079       .  S
O94         C112   1.276       .  A
O94        Cd103   2.077       .  S
O95         C109   1.275       .  A
O95         Cd99   2.071       .  S
O96         C107   1.275       .  A
O96         Cd99   2.075       .  S
Zn97        O108   1.993       .  S
Zn97        O110   2.008       .  S
Zn97        O102   1.927       .  S
O98         C109   1.277       .  A
O98        Cd103   2.084       .  S
Cd99        O101   2.064       .  S
Cd99        O102   2.003       .  S
Cd100       O104   2.070       .  S
Cd100       O113   2.069       .  S
Cd100       O102   2.000       .  S
O101        C111   1.273       .  A
O102       Cd103   2.007       .  S
Cd103       O105   2.099       .  S
O104        C111   1.275       .  A
C106        C865   1.477       .  S
C106        O110   1.272       .  A
C107        C956   1.497       .  S
C109       C1236   1.485       .  S
C111       C1369   1.492       .  S
C112       C1488   1.496       .  S
C112        O113   1.275       .  A
C114        N115   1.358       .  A
C114        N119   1.355       .  A
C114        C788   1.481       .  S
N115        C116   1.363       .  A
C116        N117   1.362       .  A
C116        C194   1.478       .  S
N117        C118   1.363       .  A
C118        N119   1.358       .  A
C118        C753   1.496       .  S
C120        N121   1.352       .  A
C120        N125   1.363       .  A
C120        C816   1.487       .  S
N121        C122   1.353       .  A
C122        N123   1.360       .  A
C122        C725   1.486       .  S
N123        C124   1.363       .  A
C124        N125   1.366       .  A
C124        C221   1.480       .  S
O126        C142   1.274       .  A
O126       Zn132   2.006       .  S
C127        C781   1.482       .  S
C127        O143   1.273       .  A
C127        O140   1.276       .  A
O128        C141   1.276       .  A
O128       Cd135   2.081       .  S
O129        C147   1.276       .  A
O129       Cd138   2.077       .  S
O130        C144   1.275       .  A
O130       Cd134   2.076       .  S
O131        C142   1.276       .  A
O131       Cd134   2.083       .  S
Zn132       O143   2.013       .  S
Zn132       O145   2.010       .  S
Zn132       O137   1.933       .  S
O133        C144   1.275       .  A
O133       Cd138   2.073       .  S
Cd134       O136   2.069       .  S
Cd134       O137   2.007       .  S
Cd135       O139   2.066       .  S
Cd135       O148   2.080       .  S
Cd135       O137   2.004       .  S
O136        C146   1.275       .  A
O137       Cd138   2.001       .  S
Cd138       O140   2.084       .  S
O139        C146   1.274       .  A
C141        C732   1.483       .  S
C141        O145   1.273       .  A
C142        C697   1.488       .  S
C144       C1348   1.516       .  S
C146       C1572   1.487       .  S
C147       C1208   1.498       .  S
C147        O148   1.276       .  A
C149        N150   1.362       .  A
C149        N154   1.359       .  A
C149        C641   1.491       .  S
N150        C151   1.362       .  A
C151        N152   1.362       .  A
N152        C153   1.359       .  A
C153        N154   1.357       .  A
C153        C669   1.494       .  S
O155        C171   1.272       .  A
O155       Zn161   2.003       .  S
C156       C1460   1.489       .  S
C156        O172   1.274       .  A
C156        O169   1.277       .  A
O157        C170   1.278       .  A
O157       Cd164   2.092       .  S
O158        C176   1.277       .  A
O158       Cd167   2.083       .  S
O159        C173   1.275       .  A
O159       Cd163   2.072       .  S
O160        C171   1.278       .  A
O160       Cd163   2.100       .  S
Zn161       O172   2.015       .  S
Zn161       O174   2.008       .  S
Zn161       O166   1.938       .  S
O162        C173   1.275       .  A
O162       Cd167   2.075       .  S
Cd163       O165   2.083       .  S
Cd163       O166   2.011       .  S
Cd164       O168   2.083       .  S
Cd164       O177   2.082       .  S
Cd164       O166   2.011       .  S
O165        C175   1.276       .  A
O166       Cd167   2.009       .  S
Cd167       O169   2.090       .  S
O168        C175   1.277       .  A
C170       C1096   1.493       .  S
C170        O174   1.273       .  A
C171       C1621   1.488       .  S
C173        C613   1.508       .  S
C175        C984   1.489       .  S
C176        C676   1.489       .  S
C176        O177   1.276       .  A
C178        N179   1.359       .  A
C178        N183   1.356       .  A
C178        C585   1.485       .  S
N179        C180   1.361       .  A
C180        N181   1.363       .  A
N181        C182   1.360       .  A
C182        N183   1.356       .  A
C182        C704   1.487       .  S
C184        N185   1.354       .  A
C184        N189   1.358       .  A
C184        C620   1.480       .  S
N185        C186   1.356       .  A
C186        N187   1.362       .  A
C186        C564   1.492       .  S
N187        C188   1.364       .  A
C188        N189   1.360       .  A
C188        C252   1.475       .  S
C190        N191   1.356       .  A
C190        N195   1.363       .  A
C190        C529   1.488       .  S
N191        C192   1.355       .  A
C192        N193   1.358       .  A
C192        C501   1.488       .  S
N193        C194   1.360       .  A
C194        N195   1.365       .  A
O196        C212   1.271       .  A
O196       Zn202   1.992       .  S
C197       C1292   1.480       .  S
C197        O213   1.271       .  A
C197        O210   1.276       .  A
O198        C211   1.275       .  A
O198       Cd205   2.080       .  S
O199        C217   1.276       .  A
O199       Cd208   2.078       .  S
O200        C214   1.275       .  A
O200       Cd204   2.074       .  S
O201        C212   1.275       .  A
O201       Cd204   2.080       .  S
Zn202       O213   1.996       .  S
Zn202       O215   1.992       .  S
Zn202       O207   1.927       .  S
O203        C214   1.274       .  A
O203       Cd208   2.065       .  S
Cd204       O206   2.062       .  S
Cd204       O207   2.002       .  S
Cd205       O209   2.082       .  S
Cd205       O218   2.061       .  S
Cd205       O207   2.003       .  S
O206        C216   1.275       .  A
O207       Cd208   2.003       .  S
Cd208       O210   2.079       .  S
O209        C216   1.277       .  A
C211       C1061   1.479       .  S
C211        O215   1.271       .  A
C212       C1180   1.482       .  S
C214        C557   1.492       .  S
C216        C508   1.489       .  S
C217        C592   1.494       .  S
C217        O218   1.274       .  A
C219        N220   1.360       .  A
C219        N224   1.358       .  A
C219        C452   1.489       .  S
N220        C221   1.363       .  A
C221        N222   1.362       .  A
N222        C223   1.363       .  A
C223        N224   1.361       .  A
C223        C480   1.503       .  S
O225        C241   1.273       .  A
O225       Zn231   2.002       .  S
C226        C445   1.494       .  S
C226        O242   1.274       .  A
C226        O239   1.279       .  A
O227        C240   1.276       .  A
O227       Cd234   2.087       .  S
O228        C246   1.277       .  A
O228       Cd237   2.076       .  S
O229        C243   1.273       .  A
O229       Cd233   2.054       .  S
O230        C241   1.274       .  A
O230       Cd233   2.072       .  S
Zn231       O242   2.018       .  S
Zn231       O244   2.019       .  S
Zn231       O236   1.935       .  S
O232        C243   1.279       .  A
O232       Cd237   2.101       .  S
Cd233       O235   2.084       .  S
Cd233       O236   2.006       .  S
Cd234       O238   2.078       .  S
Cd234       O247   2.068       .  S
Cd234       O236   2.006       .  S
O235        C245   1.275       .  A
O236       Cd237   2.017       .  S
Cd237       O239   2.108       .  S
O238        C245   1.275       .  A
C240        C760   1.492       .  S
C240        O244   1.274       .  A
C241        C417   1.472       .  S
C243       C1593   1.493       .  S
C245       C1012   1.511       .  S
C246       C1544   1.483       .  S
C246        O247   1.275       .  A
C248        N249   1.354       .  A
C248        N253   1.359       .  A
C248        C389   1.479       .  S
N249        C250   1.356       .  A
C250        N251   1.361       .  A
C250        C368   1.497       .  S
N251        C252   1.364       .  A
C252        N253   1.361       .  A
C254        N255   1.355       .  A
C254        N259   1.360       .  A
C254        C333   1.482       .  S
N255        C256   1.355       .  A
C256        N257   1.357       .  A
C256        C424   1.475       .  S
N257        C258   1.360       .  A
C258        N259   1.361       .  A
O260        C276   1.275       .  A
O260       Zn266   2.024       .  S
C261        C396   1.487       .  S
C261        O277   1.274       .  A
C261        O274   1.276       .  A
O262        C275   1.275       .  A
O262       Cd269   2.079       .  S
O263        C281   1.277       .  A
O263       Cd272   2.082       .  S
O264        C278   1.276       .  A
O264       Cd268   2.072       .  S
O265        C276   1.277       .  A
O265       Cd268   2.096       .  S
Zn266       O277   2.018       .  S
Zn266       O279   2.005       .  S
Zn266       O271   1.937       .  S
O267        C278   1.275       .  A
O267       Cd272   2.072       .  S
Cd268       O270   2.081       .  S
Cd268       O271   2.008       .  S
Cd269       O273   2.077       .  S
Cd269       O282   2.084       .  S
Cd269       O271   2.011       .  S
O270        C280   1.277       .  A
O271       Cd272   2.008       .  S
Cd272       O274   2.087       .  S
O273        C280   1.276       .  A
C275        C340   1.482       .  S
C275        O279   1.274       .  A
C276        C536   1.492       .  S
C278       C1516   1.506       .  S
C280       C1397   1.499       .  S
C281       C1320   1.492       .  S
C281        O282   1.276       .  A
O283        C299   1.272       .  A
O283       Zn289   2.005       .  S
C284       C1124   1.484       .  S
C284        O300   1.273       .  A
C284        O297   1.277       .  A
O285        C298   1.277       .  A
O285       Cd292   2.092       .  S
O286        C304   1.276       .  A
O286       Cd295   2.078       .  S
O287        C301   1.276       .  A
O287       Cd291   2.077       .  S
O288        C299   1.275       .  A
O288       Cd291   2.082       .  S
Zn289       O300   2.008       .  S
Zn289       O302   2.012       .  S
Zn289       O294   1.933       .  S
O290        C301   1.277       .  A
O290       Cd295   2.082       .  S
Cd291       O293   2.080       .  S
Cd291       O294   2.006       .  S
Cd292       O296   2.070       .  S
Cd292       O305   2.079       .  S
Cd292       O294   2.005       .  S
O293        C303   1.277       .  A
O294       Cd295   2.011       .  S
Cd295       O297   2.092       .  S
O296        C303   1.274       .  A
C298       C1656   1.495       .  S
C298        O302   1.274       .  A
C299       C1432   1.477       .  S
C301        C648   1.501       .  S
C303        C928   1.503       .  S
C304        C361   1.486       .  S
C304        O305   1.277       .  A
O306        C322   1.273       .  A
O306       Zn312   2.001       .  S
C307        C844   1.487       .  S
C307        O323   1.273       .  A
C307        O320   1.276       .  A
O308        C321   1.275       .  A
O308       Cd315   2.087       .  S
O309        C327   1.275       .  A
O309       Cd318   2.072       .  S
O310        C324   1.277       .  A
O310       Cd314   2.093       .  S
O311        C322   1.277       .  A
O311       Cd314   2.088       .  S
Zn312       O323   2.001       .  S
Zn312       O325   2.013       .  S
Zn312       O317   1.929       .  S
O313        C324   1.275       .  A
O313       Cd318   2.073       .  S
Cd314       O316   2.076       .  S
Cd314       O317   2.011       .  S
Cd315       O319   2.062       .  S
Cd315       O328   2.060       .  S
Cd315       O317   2.007       .  S
O316        C326   1.277       .  A
O317       Cd318   2.006       .  S
Cd318       O320   2.084       .  S
O319        C326   1.274       .  A
C321        C473   1.491       .  S
C321        O325   1.273       .  A
C322        C900   1.488       .  S
C324       C1033   1.494       .  S
C326       C1257   1.488       .  S
C327       C1152   1.488       .  S
C327        O328   1.274       .  A
C329        C330   1.410       .  A
C329        C334   1.409       .  A
C329        C347   1.451       .  S
C330        C335   1.494       .  S
C330        C331   1.410       .  A
C331        C332   1.412       .  A
C331        C336   1.450       .  S
C332        C333   1.413       .  A
C332        C348   1.450       .  S
C333        C334   1.414       .  A
C334        C337   1.452       .  S
C335        C338   1.411       .  A
C335        C342   1.409       .  A
C336        N353   1.157       .  T
C337        N355   1.157       .  T
C338        C339   1.411       .  A
C338        C343   1.451       .  S
C339        C340   1.413       .  A
C339        C345   1.451       .  S
C340        C341   1.414       .  A
C341        C342   1.409       .  A
C341        C344   1.452       .  S
C342        C346   1.450       .  S
C343        N350   1.157       .  T
C344        N351   1.157       .  T
C345        N349   1.157       .  T
C346        N352   1.157       .  T
C347        N356   1.157       .  T
C348        N354   1.157       .  T
C357        C358   1.410       .  A
C357        C362   1.410       .  A
C357        C375   1.451       .  S
C358        C363   1.498       .  S
C358        C359   1.411       .  A
C359        C360   1.413       .  A
C359        C364   1.450       .  S
C360        C361   1.413       .  A
C360        C376   1.449       .  S
C361        C362   1.415       .  A
C362        C365   1.451       .  S
C363        C366   1.408       .  A
C363        C370   1.411       .  A
C364        N381   1.157       .  T
C365        N383   1.157       .  T
C366        C367   1.409       .  A
C366        C371   1.452       .  S
C367        C368   1.420       .  A
C367        C373   1.452       .  S
C368        C369   1.419       .  A
C369        C370   1.415       .  A
C369        C372   1.451       .  S
C370        C374   1.450       .  S
C371        N378   1.157       .  T
C372        N379   1.158       .  T
C373        N377   1.158       .  T
C374        N380   1.157       .  T
C375        N384   1.157       .  T
C376        N382   1.157       .  T
C385        C386   1.414       .  A
C385        C390   1.410       .  A
C385        C403   1.451       .  S
C386        C391   1.501       .  S
C386        C387   1.413       .  A
C387        C388   1.412       .  A
C387        C392   1.450       .  S
C388        C389   1.411       .  A
C388        C404   1.451       .  S
C389        C390   1.410       .  A
C390        C393   1.451       .  S
C391        C394   1.414       .  A
C391        C398   1.411       .  A
C392        N409   1.157       .  T
C393        N411   1.157       .  T
C394        C395   1.414       .  A
C394        C399   1.451       .  S
C395        C396   1.414       .  A
C395        C401   1.450       .  S
C396        C397   1.414       .  A
C397        C398   1.410       .  A
C397        C400   1.451       .  S
C398        C402   1.451       .  S
C399        N406   1.157       .  T
C400        N407   1.157       .  T
C401        N405   1.157       .  T
C402        N408   1.157       .  T
C403        N412   1.157       .  T
C404        N410   1.157       .  T
C413        C414   1.412       .  A
C413        C418   1.411       .  A
C413        C431   1.450       .  S
C414        C419   1.493       .  S
C414        C415   1.413       .  A
C415        C416   1.406       .  A
C415        C420   1.451       .  S
C416        C417   1.408       .  A
C416        C432   1.451       .  S
C417        C418   1.410       .  A
C418        C421   1.450       .  S
C419        C422   1.413       .  A
C419        C426   1.411       .  A
C420        N437   1.157       .  T
C421        N439   1.157       .  T
C422        C423   1.410       .  A
C422        C427   1.451       .  S
C423        C424   1.410       .  A
C423        C429   1.451       .  S
C424        C425   1.411       .  A
C425        C426   1.408       .  A
C425        C428   1.451       .  S
C426        C430   1.450       .  S
C427        N434   1.157       .  T
C428        N435   1.157       .  T
C429        N433   1.157       .  T
C430        N436   1.157       .  T
C431        N440   1.157       .  T
C432        N438   1.157       .  T
C441        C442   1.414       .  A
C441        C446   1.418       .  A
C441        C459   1.450       .  S
C442        C447   1.507       .  S
C442        C443   1.412       .  A
C443        C444   1.412       .  A
C443        C448   1.451       .  S
C444        C445   1.414       .  A
C444        C460   1.450       .  S
C445        C446   1.414       .  A
C446        C449   1.449       .  S
C447        C450   1.414       .  A
C447        C454   1.413       .  A
C448        N465   1.157       .  T
C449        N467   1.157       .  T
C450        C451   1.415       .  A
C450        C455   1.450       .  S
C451        C452   1.412       .  A
C451        C457   1.450       .  S
C452        C453   1.412       .  A
C453        C454   1.414       .  A
C453        C456   1.450       .  S
C454        C458   1.450       .  S
C455        N462   1.157       .  T
C456        N463   1.157       .  T
C457        N461   1.157       .  T
C458        N464   1.157       .  T
C459        N468   1.157       .  T
C460        N466   1.157       .  T
C469        C470   1.412       .  A
C469        C474   1.416       .  A
C469        C487   1.450       .  S
C470        C475   1.500       .  S
C470        C471   1.411       .  A
C471        C472   1.410       .  A
C471        C476   1.451       .  S
C472        C473   1.416       .  A
C472        C488   1.452       .  S
C473        C474   1.416       .  A
C474        C477   1.450       .  S
C475        C478   1.409       .  A
C475        C482   1.409       .  A
C476        N493   1.157       .  T
C477        N495   1.157       .  T
C478        C479   1.413       .  A
C478        C483   1.451       .  S
C479        C480   1.420       .  A
C479        C485   1.450       .  S
C480        C481   1.420       .  A
C481        C482   1.414       .  A
C481        C484   1.447       .  S
C482        C486   1.451       .  S
C483        N490   1.157       .  T
C484        N491   1.156       .  T
C485        N489   1.157       .  T
C486        N492   1.157       .  T
C487        N496   1.157       .  T
C488        N494   1.157       .  T
C497        C498   1.410       .  A
C497        C502   1.411       .  A
C497        C515   1.451       .  S
C498        C503   1.496       .  S
C498        C499   1.411       .  A
C499        C500   1.411       .  A
C499        C504   1.451       .  S
C500        C501   1.416       .  A
C500        C516   1.451       .  S
C501        C502   1.415       .  A
C502        C505   1.451       .  S
C503        C506   1.410       .  A
C503        C510   1.410       .  A
C504        N521   1.157       .  T
C505        N523   1.157       .  T
C506        C507   1.409       .  A
C506        C511   1.451       .  S
C507        C508   1.417       .  A
C507        C513   1.452       .  S
C508        C509   1.416       .  A
C509        C510   1.413       .  A
C509        C512   1.450       .  S
C510        C514   1.450       .  S
C511        N518   1.157       .  T
C512        N519   1.157       .  T
C513        N517   1.158       .  T
C514        N520   1.157       .  T
C515        N524   1.157       .  T
C516        N522   1.157       .  T
C525        C526   1.413       .  A
C525        C530   1.416       .  A
C525        C543   1.449       .  S
C526        C531   1.502       .  S
C526        C527   1.411       .  A
C527        C528   1.410       .  A
C527        C532   1.451       .  S
C528        C529   1.414       .  A
C528        C544   1.452       .  S
C529        C530   1.413       .  A
C530        C533   1.450       .  S
C531        C534   1.411       .  A
C531        C538   1.412       .  A
C532        N549   1.157       .  T
C533        N551   1.157       .  T
C534        C535   1.413       .  A
C534        C539   1.450       .  S
C535        C536   1.415       .  A
C535        C541   1.451       .  S
C536        C537   1.415       .  A
C537        C538   1.415       .  A
C537        C540   1.450       .  S
C538        C542   1.450       .  S
C539        N546   1.157       .  T
C540        N547   1.157       .  T
C541        N545   1.157       .  T
C542        N548   1.157       .  T
C543        N552   1.157       .  T
C544        N550   1.157       .  T
C553        C554   1.410       .  A
C553        C558   1.413       .  A
C553        C571   1.450       .  S
C554        C559   1.496       .  S
C554        C555   1.409       .  A
C555        C556   1.409       .  A
C555        C560   1.452       .  S
C556        C557   1.419       .  A
C556        C572   1.452       .  S
C557        C558   1.417       .  A
C558        C561   1.451       .  S
C559        C562   1.411       .  A
C559        C566   1.408       .  A
C560        N577   1.157       .  T
C561        N579   1.157       .  T
C562        C563   1.413       .  A
C562        C567   1.451       .  S
C563        C564   1.416       .  A
C563        C569   1.450       .  S
C564        C565   1.418       .  A
C565        C566   1.410       .  A
C565        C568   1.452       .  S
C566        C570   1.451       .  S
C567        N574   1.157       .  T
C568        N575   1.157       .  T
C569        N573   1.157       .  T
C570        N576   1.157       .  T
C571        N580   1.157       .  T
C572        N578   1.158       .  T
C581        C582   1.412       .  A
C581        C586   1.412       .  A
C581        C599   1.451       .  S
C582        C587   1.496       .  S
C582        C583   1.410       .  A
C583        C584   1.410       .  A
C583        C588   1.451       .  S
C584        C585   1.414       .  A
C584        C600   1.451       .  S
C585        C586   1.414       .  A
C586        C589   1.451       .  S
C587        C590   1.410       .  A
C587        C594   1.409       .  A
C588        N605   1.157       .  T
C589        N607   1.157       .  T
C590        C591   1.413       .  A
C590        C595   1.450       .  S
C591        C592   1.418       .  A
C591        C597   1.451       .  S
C592        C593   1.421       .  A
C593        C594   1.408       .  A
C593        C596   1.453       .  S
C594        C598   1.452       .  S
C595        N602   1.157       .  T
C596        N603   1.158       .  T
C597        N601   1.157       .  T
C598        N604   1.157       .  T
C599        N608   1.157       .  T
C600        N606   1.157       .  T
C609        C610   1.407       .  A
C609        C614   1.411       .  A
C609        C627   1.452       .  S
C610        C615   1.497       .  S
C610        C611   1.407       .  A
C611        C612   1.413       .  A
C611        C616   1.452       .  S
C612        C613   1.427       .  A
C612        C628   1.451       .  S
C613        C614   1.424       .  A
C614        C617   1.452       .  S
C615        C618   1.412       .  A
C615        C622   1.411       .  A
C616        N633   1.157       .  T
C617        N635   1.157       .  T
C618        C619   1.410       .  A
C618        C623   1.451       .  S
C619        C620   1.412       .  A
C619        C625   1.451       .  S
C620        C621   1.412       .  A
C621        C622   1.411       .  A
C621        C624   1.450       .  S
C622        C626   1.450       .  S
C623        N630   1.157       .  T
C624        N631   1.157       .  T
C625        N629   1.157       .  T
C626        N632   1.157       .  T
C627        N636   1.157       .  T
C628        N634   1.158       .  T
C637        C638   1.411       .  A
C637        C642   1.415       .  A
C637        C655   1.450       .  S
C638        C643   1.500       .  S
C638        C639   1.410       .  A
C639        C640   1.410       .  A
C639        C644   1.451       .  S
C640        C641   1.416       .  A
C640        C656   1.452       .  S
C641        C642   1.415       .  A
C642        C645   1.450       .  S
C643        C646   1.410       .  A
C643        C650   1.408       .  A
C644        N661   1.157       .  T
C645        N663   1.157       .  T
C646        C647   1.413       .  A
C646        C651   1.451       .  S
C647        C648   1.419       .  A
C647        C653   1.451       .  S
C648        C649   1.422       .  A
C649        C650   1.413       .  A
C649        C652   1.452       .  S
C650        C654   1.451       .  S
C651        N658   1.157       .  T
C652        N659   1.158       .  T
C653        N657   1.157       .  T
C654        N660   1.157       .  T
C655        N664   1.157       .  T
C656        N662   1.157       .  T
C665        C666   1.413       .  A
C665        C670   1.415       .  A
C665        C683   1.450       .  S
C666        C671   1.504       .  S
C666        C667   1.412       .  A
C667        C668   1.412       .  A
C667        C672   1.451       .  S
C668        C669   1.415       .  A
C668        C684   1.451       .  S
C669        C670   1.416       .  A
C670        C673   1.451       .  S
C671        C674   1.413       .  A
C671        C678   1.414       .  A
C672        N689   1.157       .  T
C673        N691   1.157       .  T
C674        C675   1.412       .  A
C674        C679   1.451       .  S
C675        C676   1.414       .  A
C675        C681   1.451       .  S
C676        C677   1.413       .  A
C677        C678   1.415       .  A
C677        C680   1.450       .  S
C678        C682   1.450       .  S
C679        N686   1.157       .  T
C680        N687   1.157       .  T
C681        N685   1.157       .  T
C682        N688   1.157       .  T
C683        N692   1.157       .  T
C684        N690   1.157       .  T
C693        C694   1.412       .  A
C693        C698   1.414       .  A
C693        C711   1.450       .  S
C694        C699   1.498       .  S
C694        C695   1.409       .  A
C695        C696   1.409       .  A
C695        C700   1.451       .  S
C696        C697   1.416       .  A
C696        C712   1.452       .  S
C697        C698   1.415       .  A
C698        C701   1.451       .  S
C699        C702   1.411       .  A
C699        C706   1.411       .  A
C700        N717   1.157       .  T
C701        N719   1.157       .  T
C702        C703   1.409       .  A
C702        C707   1.451       .  S
C703        C704   1.414       .  A
C703        C709   1.452       .  S
C704        C705   1.414       .  A
C705        C706   1.414       .  A
C705        C708   1.450       .  S
C706        C710   1.450       .  S
C707        N714   1.157       .  T
C708        N715   1.157       .  T
C709        N713   1.157       .  T
C710        N716   1.157       .  T
C711        N720   1.157       .  T
C712        N718   1.158       .  T
C721        C722   1.412       .  A
C721        C726   1.413       .  A
C721        C739   1.450       .  S
C722        C727   1.498       .  S
C722        C723   1.411       .  A
C723        C724   1.408       .  A
C723        C728   1.452       .  S
C724        C725   1.416       .  A
C724        C740   1.452       .  S
C725        C726   1.413       .  A
C726        C729   1.450       .  S
C727        C730   1.411       .  A
C727        C734   1.413       .  A
C728        N745   1.157       .  T
C729        N747   1.157       .  T
C730        C731   1.410       .  A
C730        C735   1.451       .  S
C731        C732   1.413       .  A
C731        C737   1.451       .  S
C732        C733   1.412       .  A
C733        C734   1.412       .  A
C733        C736   1.451       .  S
C734        C738   1.451       .  S
C735        N742   1.157       .  T
C736        N743   1.157       .  T
C737        N741   1.157       .  T
C738        N744   1.157       .  T
C739        N748   1.157       .  T
C740        N746   1.157       .  T
C749        C750   1.410       .  A
C749        C754   1.414       .  A
C749        C767   1.450       .  S
C750        C755   1.499       .  S
C750        C751   1.409       .  A
C751        C752   1.411       .  A
C751        C756   1.452       .  S
C752        C753   1.419       .  A
C752        C768   1.452       .  S
C753        C754   1.417       .  A
C754        C757   1.451       .  S
C755        C758   1.412       .  A
C755        C762   1.409       .  A
C756        N773   1.157       .  T
C757        N775   1.157       .  T
C758        C759   1.414       .  A
C758        C763   1.450       .  S
C759        C760   1.416       .  A
C759        C765   1.451       .  S
C760        C761   1.417       .  A
C761        C762   1.411       .  A
C761        C764   1.450       .  S
C762        C766   1.451       .  S
C763        N770   1.157       .  T
C764        N771   1.157       .  T
C765        N769   1.157       .  T
C766        N772   1.157       .  T
C767        N776   1.157       .  T
C768        N774   1.157       .  T
C777        C778   1.412       .  A
C777        C782   1.412       .  A
C777        C795   1.450       .  S
C778        C783   1.499       .  S
C778        C779   1.413       .  A
C779        C780   1.412       .  A
C779        C784   1.450       .  S
C780        C781   1.412       .  A
C780        C796   1.451       .  S
C781        C782   1.412       .  A
C782        C785   1.451       .  S
C783        C786   1.413       .  A
C783        C790   1.412       .  A
C784        N801   1.157       .  T
C785        N803   1.157       .  T
C786        C787   1.413       .  A
C786        C791   1.450       .  S
C787        C788   1.411       .  A
C787        C793   1.450       .  S
C788        C789   1.411       .  A
C789        C790   1.411       .  A
C789        C792   1.451       .  S
C790        C794   1.450       .  S
C791        N798   1.157       .  T
C792        N799   1.157       .  T
C793        N797   1.157       .  T
C794        N800   1.157       .  T
C795        N804   1.157       .  T
C796        N802   1.157       .  T
C805        C806   1.411       .  A
C805        C810   1.409       .  A
C805        C823   1.452       .  S
C806        C811   1.501       .  S
C806        C807   1.412       .  A
C807        C808   1.415       .  A
C807        C812   1.450       .  S
C808        C809   1.415       .  A
C808        C824   1.450       .  S
C809        C810   1.418       .  A
C810        C813   1.453       .  S
C811        C814   1.411       .  A
C811        C818   1.413       .  A
C812        N829   1.157       .  T
C813        N831   1.158       .  T
C814        C815   1.411       .  A
C814        C819   1.451       .  S
C815        C816   1.416       .  A
C815        C821   1.451       .  S
C816        C817   1.413       .  A
C817        C818   1.412       .  A
C817        C820   1.449       .  S
C818        C822   1.451       .  S
C819        N826   1.157       .  T
C820        N827   1.157       .  T
C821        N825   1.157       .  T
C822        N828   1.157       .  T
C823        N832   1.157       .  T
C824        N830   1.157       .  T
C833        C834   1.410       .  A
C833        C838   1.414       .  A
C833        C851   1.451       .  S
C834        C839   1.498       .  S
C834        C835   1.408       .  A
C835        C836   1.411       .  A
C835        C840   1.452       .  S
C836        C837   1.422       .  A
C836        C852   1.451       .  S
C837        C838   1.420       .  A
C838        C841   1.451       .  S
C839        C842   1.411       .  A
C839        C846   1.411       .  A
C840        N857   1.157       .  T
C841        N859   1.157       .  T
C842        C843   1.408       .  A
C842        C847   1.451       .  S
C843        C844   1.415       .  A
C843        C849   1.453       .  S
C844        C845   1.415       .  A
C845        C846   1.414       .  A
C845        C848   1.450       .  S
C846        C850   1.450       .  S
C847        N854   1.157       .  T
C848        N855   1.157       .  T
C849        N853   1.157       .  T
C850        N856   1.157       .  T
C851        N860   1.157       .  T
C852        N858   1.157       .  T
C861        C862   1.410       .  A
C861        C866   1.410       .  A
C861        C879   1.450       .  S
C862        C867   1.494       .  S
C862        C863   1.412       .  A
C863        C864   1.410       .  A
C863        C868   1.451       .  S
C864        C865   1.410       .  A
C864        C880   1.451       .  S
C865        C866   1.411       .  A
C866        C869   1.451       .  S
C867        C870   1.412       .  A
C867        C874   1.410       .  A
C868        N885   1.157       .  T
C869        N887   1.157       .  T
C870        C871   1.410       .  A
C870        C875   1.450       .  S
C871        C872   1.410       .  A
C871        C877   1.451       .  S
C872        C873   1.411       .  A
C873        C874   1.410       .  A
C873        C876   1.450       .  S
C874        C878   1.450       .  S
C875        N882   1.157       .  T
C876        N883   1.157       .  T
C877        N881   1.157       .  T
C878        N884   1.157       .  T
C879        N888   1.157       .  T
C880        N886   1.157       .  T
C889        C890   1.409       .  A
C889        C894   1.410       .  A
C889        C907   1.451       .  S
C890        C895   1.496       .  S
C890        C891   1.411       .  A
C891        C892   1.412       .  A
C891        C896   1.450       .  S
C892        C893   1.414       .  A
C892        C908   1.451       .  S
C893        C894   1.415       .  A
C894        C897   1.451       .  S
C895        C898   1.410       .  A
C895        C902   1.410       .  A
C896        N913   1.157       .  T
C897        N915   1.157       .  T
C898        C899   1.412       .  A
C898        C903   1.450       .  S
C899        C900   1.415       .  A
C899        C905   1.450       .  S
C900        C901   1.417       .  A
C901        C902   1.410       .  A
C901        C904   1.452       .  S
C902        C906   1.451       .  S
C903        N910   1.157       .  T
C904        N911   1.158       .  T
C905        N909   1.157       .  T
C906        N912   1.157       .  T
C907        N916   1.157       .  T
C908        N914   1.157       .  T
C917        C918   1.411       .  A
C917        C922   1.408       .  A
C917        C935   1.451       .  S
C918        C923   1.496       .  S
C918        C919   1.412       .  A
C919        C920   1.413       .  A
C919        C924   1.449       .  S
C920        C921   1.412       .  A
C920        C936   1.450       .  S
C921        C922   1.412       .  A
C922        C925   1.452       .  S
C923        C926   1.407       .  A
C923        C930   1.409       .  A
C924        N941   1.157       .  T
C925        N943   1.157       .  T
C926        C927   1.412       .  A
C926        C931   1.452       .  S
C927        C928   1.425       .  A
C927        C933   1.451       .  S
C928        C929   1.421       .  A
C929        C930   1.412       .  A
C929        C932   1.451       .  S
C930        C934   1.451       .  S
C931        N938   1.157       .  T
C932        N939   1.158       .  T
C933        N937   1.158       .  T
C934        N940   1.157       .  T
C935        N944   1.157       .  T
C936        N942   1.157       .  T
C945        C946   1.410       .  A
C945        C950   1.410       .  A
C945        C963   1.451       .  S
C946        C951   1.496       .  S
C946        C947   1.410       .  A
C947        C948   1.412       .  A
C947        C952   1.451       .  S
C948        C949   1.417       .  A
C948        C964   1.451       .  S
C949        C950   1.416       .  A
C950        C953   1.451       .  S
C951        C954   1.409       .  A
C951        C958   1.409       .  A
C952        N969   1.157       .  T
C953        N971   1.157       .  T
C954        C955   1.409       .  A
C954        C959   1.452       .  S
C955        C956   1.421       .  A
C955        C961   1.453       .  S
C956        C957   1.420       .  A
C957        C958   1.413       .  A
C957        C960   1.450       .  S
C958        C962   1.450       .  S
C959        N966   1.157       .  T
C960        N967   1.157       .  T
C961        N965   1.158       .  T
C962        N968   1.157       .  T
C963        N972   1.157       .  T
C964        N970   1.157       .  T
C973        C974   1.409       .  A
C973        C978   1.415       .  A
C973        C991   1.450       .  S
C974        C979   1.501       .  S
C974        C975   1.408       .  A
C975        C976   1.412       .  A
C975        C980   1.452       .  S
C976        C977   1.424       .  A
C976        C992   1.452       .  S
C977        C978   1.421       .  A
C978        C981   1.450       .  S
C979        C982   1.411       .  A
C979        C986   1.412       .  A
C980        N997   1.157       .  T
C981        N999   1.158       .  T
C982        C983   1.413       .  A
C982        C987   1.450       .  S
C983        C984   1.416       .  A
C983        C989   1.452       .  S
C984        C985   1.412       .  A
C985        C986   1.413       .  A
C985        C988   1.449       .  S
C986        C990   1.450       .  S
C987        N994   1.157       .  T
C988        N995   1.157       .  T
C989        N993   1.158       .  T
C990        N996   1.157       .  T
C991       N1000   1.157       .  T
C992        N998   1.158       .  T
C1001      C1002   1.411       .  A
C1001      C1006   1.414       .  A
C1001      C1019   1.450       .  S
C1002      C1007   1.501       .  S
C1002      C1003   1.411       .  A
C1003      C1004   1.412       .  A
C1003      C1008   1.450       .  S
C1004      C1005   1.412       .  A
C1004      C1020   1.449       .  S
C1005      C1006   1.415       .  A
C1006      C1009   1.451       .  S
C1007      C1010   1.407       .  A
C1007      C1014   1.408       .  A
C1008      N1025   1.157       .  T
C1009      N1027   1.157       .  T
C1010      C1011   1.412       .  A
C1010      C1015   1.452       .  S
C1011      C1012   1.426       .  A
C1011      C1017   1.451       .  S
C1012      C1013   1.425       .  A
C1013      C1014   1.416       .  A
C1013      C1016   1.451       .  S
C1014      C1018   1.451       .  S
C1015      N1022   1.157       .  T
C1016      N1023   1.158       .  T
C1017      N1021   1.158       .  T
C1018      N1024   1.157       .  T
C1019      N1028   1.157       .  T
C1020      N1026   1.157       .  T
C1029      C1030   1.413       .  A
C1029      C1034   1.417       .  A
C1029      C1047   1.450       .  S
C1030      C1035   1.504       .  S
C1030      C1031   1.411       .  A
C1031      C1032   1.411       .  A
C1031      C1036   1.451       .  S
C1032      C1033   1.417       .  A
C1032      C1048   1.452       .  S
C1033      C1034   1.416       .  A
C1034      C1037   1.450       .  S
C1035      C1038   1.413       .  A
C1035      C1042   1.411       .  A
C1036      N1053   1.157   1_455  T
C1037      N1055   1.157       .  T
C1038      C1039   1.414   1_455  A
C1038      C1043   1.451       .  S
C1039      C1040   1.416       .  A
C1039      C1045   1.451       .  S
C1040      C1041   1.416       .  A
C1041      C1042   1.414   1_655  A
C1041      C1044   1.448       .  S
C1042      C1046   1.450       .  S
C1043      N1050   1.157       .  T
C1044      N1051   1.157       .  T
C1045      N1049   1.157       .  T
C1046      N1052   1.157       .  T
C1047      N1056   1.157       .  T
C1048      N1054   1.157       .  T
C1057      C1058   1.410       .  A
C1057      C1062   1.412       .  A
C1057      C1075   1.450       .  S
C1058      C1063   1.492       .  S
C1058      C1059   1.411       .  A
C1059      C1060   1.406       .  A
C1059      C1064   1.452       .  S
C1060      C1061   1.412       .  A
C1060      C1076   1.452       .  S
C1061      C1062   1.413       .  A
C1062      C1065   1.450       .  S
C1063      C1066   1.411       .  A
C1063      C1070   1.411       .  A
C1064      N1081   1.157       .  T
C1065      N1083   1.157       .  T
C1066      C1067   1.409       .  A
C1066      C1071   1.450       .  S
C1067      C1068   1.410       .  A
C1067      C1073   1.450       .  S
C1068      C1069   1.411       .  A
C1069      C1070   1.408       .  A
C1069      C1072   1.451       .  S
C1070      C1074   1.451       .  S
C1071      N1078   1.157       .  T
C1072      N1079   1.157       .  T
C1073      N1077   1.157       .  T
C1074      N1080   1.157       .  T
C1075      N1084   1.157       .  T
C1076      N1082   1.157       .  T
C1085      C1086   1.409   1_655  A
C1085      C1090   1.412       .  A
C1085      C1103   1.451       .  S
C1086      C1091   1.499       .  S
C1086      C1087   1.410       .  A
C1087      C1088   1.413   1_455  A
C1087      C1092   1.451       .  S
C1088      C1089   1.418       .  A
C1088      C1104   1.450       .  S
C1089      C1090   1.419       .  A
C1090      C1093   1.451       .  S
C1091      C1094   1.410       .  A
C1091      C1098   1.410       .  A
C1092      N1109   1.157       .  T
C1093      N1111   1.157       .  T
C1094      C1095   1.411       .  A
C1094      C1099   1.451       .  S
C1095      C1096   1.418       .  A
C1095      C1101   1.452       .  S
C1096      C1097   1.416       .  A
C1097      C1098   1.413       .  A
C1097      C1100   1.449       .  S
C1098      C1102   1.450       .  S
C1099      N1106   1.157   1_455  T
C1100      N1107   1.157       .  T
C1101      N1105   1.158       .  T
C1102      N1108   1.157       .  T
C1103      N1112   1.157   1_655  T
C1104      N1110   1.157       .  T
C1113      C1114   1.411       .  A
C1113      C1118   1.409       .  A
C1113      C1131   1.451       .  S
C1114      C1119   1.496       .  S
C1114      C1115   1.411       .  A
C1115      C1116   1.413   1_455  A
C1115      C1120   1.450       .  S
C1116      C1117   1.414       .  A
C1116      C1132   1.450       .  S
C1117      C1118   1.414   1_655  A
C1118      C1121   1.451       .  S
C1119      C1122   1.412       .  A
C1119      C1126   1.409       .  A
C1120      N1137   1.157       .  T
C1121      N1139   1.157       .  T
C1122      C1123   1.411       .  A
C1122      C1127   1.451       .  S
C1123      C1124   1.412       .  A
C1123      C1129   1.449       .  S
C1124      C1125   1.414       .  A
C1125      C1126   1.410       .  A
C1125      C1128   1.449       .  S
C1126      C1130   1.451       .  S
C1127      N1134   1.157       .  T
C1128      N1135   1.156       .  T
C1129      N1133   1.157       .  T
C1130      N1136   1.157   1_455  T
C1131      N1140   1.157       .  T
C1132      N1138   1.157       .  T
C1141      C1142   1.409       .  A
C1141      C1146   1.408   1_545  A
C1141      C1159   1.451       .  S
C1142      C1147   1.492       .  S
C1142      C1143   1.409       .  A
C1143      C1144   1.410   1_455  A
C1143      C1148   1.451   1_455  S
C1144      C1145   1.417   1_545  A
C1144      C1160   1.451       .  S
C1145      C1146   1.416   1_655  A
C1146      C1149   1.452       .  S
C1147      C1150   1.409       .  A
C1147      C1154   1.409       .  A
C1148      N1165   1.157       .  T
C1149      N1167   1.157       .  T
C1150      C1151   1.408       .  A
C1150      C1155   1.452       .  S
C1151      C1152   1.418       .  A
C1151      C1157   1.453       .  S
C1152      C1153   1.417       .  A
C1153      C1154   1.411       .  A
C1153      C1156   1.451       .  S
C1154      C1158   1.450       .  S
C1155      N1162   1.157       .  T
C1156      N1163   1.157       .  T
C1157      N1161   1.158       .  T
C1158      N1164   1.157       .  T
C1159      N1168   1.157       .  T
C1160      N1166   1.157       .  T
C1169      C1170   1.410       .  A
C1169      C1174   1.412       .  A
C1169      C1187   1.451       .  S
C1170      C1175   1.494       .  S
C1170      C1171   1.408       .  A
C1171      C1172   1.409       .  A
C1171      C1176   1.451       .  S
C1172      C1173   1.416       .  A
C1172      C1188   1.451       .  S
C1173      C1174   1.415       .  A
C1174      C1177   1.450       .  S
C1175      C1178   1.410       .  A
C1175      C1182   1.411       .  A
C1176      N1193   1.157       .  T
C1177      N1195   1.157       .  T
C1178      C1179   1.406       .  A
C1178      C1183   1.452       .  S
C1179      C1180   1.415       .  A
C1179      C1185   1.453       .  S
C1180      C1181   1.414       .  A
C1181      C1182   1.413       .  A
C1181      C1184   1.450       .  S
C1182      C1186   1.449       .  S
C1183      N1190   1.157       .  T
C1184      N1191   1.157       .  T
C1185      N1189   1.158       .  T
C1186      N1192   1.157       .  T
C1187      N1196   1.157       .  T
C1188      N1194   1.157       .  T
C1197      C1198   1.411       .  A
C1197      C1202   1.410   1_545  A
C1197      C1215   1.451       .  S
C1198      C1203   1.499       .  S
C1198      C1199   1.412       .  A
C1199      C1200   1.414       .  A
C1199      C1204   1.450       .  S
C1200      C1201   1.414   1_545  A
C1200      C1216   1.450       .  S
C1201      C1202   1.414       .  A
C1202      C1205   1.451       .  S
C1203      C1206   1.409       .  A
C1203      C1210   1.410       .  A
C1204      N1221   1.157       .  T
C1205      N1223   1.157       .  T
C1206      C1207   1.412       .  A
C1206      C1211   1.451       .  S
C1207      C1208   1.420       .  A
C1207      C1213   1.451       .  S
C1208      C1209   1.419       .  A
C1209      C1210   1.414       .  A
C1209      C1212   1.451       .  S
C1210      C1214   1.451       .  S
C1211      N1218   1.157       .  T
C1212      N1219   1.157       .  T
C1213      N1217   1.157       .  T
C1214      N1220   1.157       .  T
C1215      N1224   1.157       .  T
C1216      N1222   1.157       .  T
C1225      C1226   1.412       .  A
C1225      C1230   1.412       .  A
C1225      C1243   1.450       .  S
C1226      C1231   1.500       .  S
C1226      C1227   1.412       .  A
C1227      C1228   1.411       .  A
C1227      C1232   1.452       .  S
C1228      C1229   1.417       .  A
C1228      C1244   1.452       .  S
C1229      C1230   1.414       .  A
C1230      C1233   1.450   1_545  S
C1231      C1234   1.412       .  A
C1231      C1238   1.413       .  A
C1232      N1249   1.157       .  T
C1233      N1251   1.157       .  T
C1234      C1235   1.411       .  A
C1234      C1239   1.451       .  S
C1235      C1236   1.414       .  A
C1235      C1241   1.451       .  S
C1236      C1237   1.412       .  A
C1237      C1238   1.412       .  A
C1237      C1240   1.450       .  S
C1238      C1242   1.450       .  S
C1239      N1246   1.157       .  T
C1240      N1247   1.157       .  T
C1241      N1245   1.157       .  T
C1242      N1248   1.157       .  T
C1243      N1252   1.157       .  T
C1244      N1250   1.158       .  T
C1253      C1254   1.411       .  A
C1253      C1258   1.409       .  A
C1253      C1271   1.452       .  S
C1254      C1259   1.496       .  S
C1254      C1255   1.410       .  A
C1255      C1256   1.411       .  A
C1255      C1260   1.450       .  S
C1256      C1257   1.416       .  A
C1256      C1272   1.451       .  S
C1257      C1258   1.416       .  A
C1258      C1261   1.452       .  S
C1259      C1262   1.410       .  A
C1259      C1266   1.412       .  A
C1260      N1277   1.157       .  T
C1261      N1279   1.158       .  T
C1262      C1263   1.410       .  A
C1262      C1267   1.451       .  S
C1263      C1264   1.413       .  A
C1263      C1269   1.451       .  S
C1264      C1265   1.412       .  A
C1265      C1266   1.411       .  A
C1265      C1268   1.450   1_545  S
C1266      C1270   1.451       .  S
C1267      N1274   1.157       .  T
C1268      N1275   1.157       .  T
C1269      N1273   1.157       .  T
C1270      N1276   1.157       .  T
C1271      N1280   1.157       .  T
C1272      N1278   1.157       .  T
C1281      C1282   1.409       .  A
C1281      C1286   1.408       .  A
C1281      C1299   1.451       .  S
C1282      C1287   1.493       .  S
C1282      C1283   1.411       .  A
C1283      C1284   1.412       .  A
C1283      C1288   1.450       .  S
C1284      C1285   1.414       .  A
C1284      C1300   1.450       .  S
C1285      C1286   1.414       .  A
C1286      C1289   1.451       .  S
C1287      C1290   1.410       .  A
C1287      C1294   1.411       .  A
C1288      N1305   1.157       .  T
C1289      N1307   1.157       .  T
C1290      C1291   1.411       .  A
C1290      C1295   1.450       .  S
C1291      C1292   1.413       .  A
C1291      C1297   1.451       .  S
C1292      C1293   1.413       .  A
C1293      C1294   1.409       .  A
C1293      C1296   1.452       .  S
C1294      C1298   1.451       .  S
C1295      N1302   1.157       .  T
C1296      N1303   1.158       .  T
C1297      N1301   1.157       .  T
C1298      N1304   1.157       .  T
C1299      N1308   1.157       .  T
C1300      N1306   1.157       .  T
C1309      C1310   1.411       .  A
C1309      C1314   1.415       .  A
C1309      C1327   1.449       .  S
C1310      C1315   1.500       .  S
C1310      C1311   1.410       .  A
C1311      C1312   1.409       .  A
C1311      C1316   1.452       .  S
C1312      C1313   1.418       .  A
C1312      C1328   1.452       .  S
C1313      C1314   1.416       .  A
C1314      C1317   1.450       .  S
C1315      C1318   1.411       .  A
C1315      C1322   1.409       .  A
C1316      N1333   1.157       .  T
C1317      N1335   1.157       .  T
C1318      C1319   1.415       .  A
C1318      C1323   1.450       .  S
C1319      C1320   1.416       .  A
C1319      C1325   1.450       .  S
C1320      C1321   1.416       .  A
C1321      C1322   1.411       .  A
C1321      C1324   1.450       .  S
C1322      C1326   1.451       .  S
C1323      N1330   1.157       .  T
C1324      N1331   1.157       .  T
C1325      N1329   1.157       .  T
C1326      N1332   1.157       .  T
C1327      N1336   1.157       .  T
C1328      N1334   1.157       .  T
C1337      C1338   1.412       .  A
C1337      C1342   1.411       .  A
C1337      C1355   1.451       .  S
C1338      C1343   1.498       .  S
C1338      C1339   1.412       .  A
C1339      C1340   1.411       .  A
C1339      C1344   1.450       .  S
C1340      C1341   1.411       .  A
C1340      C1356   1.451       .  S
C1341      C1342   1.412       .  A
C1342      C1345   1.450       .  S
C1343      C1346   1.406       .  A
C1343      C1350   1.406       .  A
C1344      N1361   1.157       .  T
C1345      N1363   1.157       .  T
C1346      C1347   1.412       .  A
C1346      C1351   1.453       .  S
C1347      C1348   1.429       .  A
C1347      C1353   1.452       .  S
C1348      C1349   1.429       .  A
C1349      C1350   1.414       .  A
C1349      C1352   1.451       .  S
C1350      C1354   1.452       .  S
C1351      N1358   1.157       .  T
C1352      N1359   1.158       .  T
C1353      N1357   1.158       .  T
C1354      N1360   1.157       .  T
C1355      N1364   1.157       .  T
C1356      N1362   1.157       .  T
C1365      C1366   1.410       .  A
C1365      C1370   1.411       .  A
C1365      C1383   1.451       .  S
C1366      C1371   1.495       .  S
C1366      C1367   1.409       .  A
C1367      C1368   1.410       .  A
C1367      C1372   1.451       .  S
C1368      C1369   1.419       .  A
C1368      C1384   1.452       .  S
C1369      C1370   1.417       .  A
C1370      C1373   1.452       .  S
C1371      C1374   1.411       .  A
C1371      C1378   1.412       .  A
C1372      N1389   1.157       .  T
C1373      N1391   1.157       .  T
C1374      C1375   1.408   1_455  A
C1374      C1379   1.452       .  S
C1375      C1376   1.413       .  A
C1375      C1381   1.452       .  S
C1376      C1377   1.411       .  A
C1377      C1378   1.413   1_655  A
C1377      C1380   1.450       .  S
C1378      C1382   1.450       .  S
C1379      N1386   1.157       .  T
C1380      N1387   1.157       .  T
C1381      N1385   1.157       .  T
C1382      N1388   1.157       .  T
C1383      N1392   1.157       .  T
C1384      N1390   1.158       .  T
C1393      C1394   1.410       .  A
C1393      C1398   1.413       .  A
C1393      C1411   1.451       .  S
C1394      C1399   1.501       .  S
C1394      C1395   1.409       .  A
C1395      C1396   1.413       .  A
C1395      C1400   1.451       .  S
C1396      C1397   1.421       .  A
C1396      C1412   1.452       .  S
C1397      C1398   1.419       .  A
C1398      C1401   1.451       .  S
C1399      C1402   1.411       .  A
C1399      C1406   1.410       .  A
C1400      N1417   1.157       .  T
C1401      N1419   1.157       .  T
C1402      C1403   1.415       .  A
C1402      C1407   1.450       .  S
C1403      C1404   1.417       .  A
C1403      C1409   1.450       .  S
C1404      C1405   1.418       .  A
C1405      C1406   1.411       .  A
C1405      C1408   1.452       .  S
C1406      C1410   1.451       .  S
C1407      N1414   1.157       .  T
C1408      N1415   1.157       .  T
C1409      N1413   1.157       .  T
C1410      N1416   1.157       .  T
C1411      N1420   1.157       .  T
C1412      N1418   1.158       .  T
C1421      C1422   1.412       .  A
C1421      C1426   1.409   1_455  A
C1421      C1439   1.450       .  S
C1422      C1427   1.497       .  S
C1422      C1423   1.413       .  A
C1423      C1424   1.411   1_455  A
C1423      C1428   1.450       .  S
C1424      C1425   1.411       .  A
C1424      C1440   1.451       .  S
C1425      C1426   1.410       .  A
C1426      C1429   1.450       .  S
C1427      C1430   1.413       .  A
C1427      C1434   1.413       .  A
C1428      N1445   1.157       .  T
C1429      N1447   1.157       .  T
C1430      C1431   1.412       .  A
C1430      C1435   1.450       .  S
C1431      C1432   1.411       .  A
C1431      C1437   1.450       .  S
C1432      C1433   1.409       .  A
C1433      C1434   1.408       .  A
C1433      C1436   1.450       .  S
C1434      C1438   1.451       .  S
C1435      N1442   1.157       .  T
C1436      N1443   1.157       .  T
C1437      N1441   1.157       .  T
C1438      N1444   1.157   1_455  T
C1439      N1448   1.157       .  T
C1440      N1446   1.157       .  T
C1449      C1450   1.411       .  A
C1449      C1454   1.414       .  A
C1449      C1467   1.450       .  S
C1450      C1455   1.501       .  S
C1450      C1451   1.411       .  A
C1451      C1452   1.412   1_455  A
C1451      C1456   1.450       .  S
C1452      C1453   1.414       .  A
C1452      C1468   1.450       .  S
C1453      C1454   1.415   1_655  A
C1454      C1457   1.449       .  S
C1455      C1458   1.411       .  A
C1455      C1462   1.411       .  A
C1456      N1473   1.157       .  T
C1457      N1475   1.157       .  T
C1458      C1459   1.412       .  A
C1458      C1463   1.451       .  S
C1459      C1460   1.415       .  A
C1459      C1465   1.452       .  S
C1460      C1461   1.414       .  A
C1461      C1462   1.414       .  A
C1461      C1464   1.450       .  S
C1462      C1466   1.450       .  S
C1463      N1470   1.157       .  T
C1464      N1471   1.157       .  T
C1465      N1469   1.158       .  T
C1466      N1472   1.157       .  T
C1467      N1476   1.157       .  T
C1468      N1474   1.157       .  T
C1477      C1478   1.409       .  A
C1477      C1482   1.409   1_545  A
C1477      C1495   1.451       .  S
C1478      C1483   1.494       .  S
C1478      C1479   1.410       .  A
C1479      C1480   1.411   1_455  A
C1479      C1484   1.450   1_455  S
C1480      C1481   1.415   1_545  A
C1480      C1496   1.451       .  S
C1481      C1482   1.412   1_655  A
C1482      C1485   1.449       .  S
C1483      C1486   1.408       .  A
C1483      C1490   1.409       .  A
C1484      N1501   1.157       .  T
C1485      N1503   1.157       .  T
C1486      C1487   1.412       .  A
C1486      C1491   1.451       .  S
C1487      C1488   1.420       .  A
C1487      C1493   1.451       .  S
C1488      C1489   1.420       .  A
C1489      C1490   1.410       .  A
C1489      C1492   1.451       .  S
C1490      C1494   1.452       .  S
C1491      N1498   1.157   1_455  T
C1492      N1499   1.157       .  T
C1493      N1497   1.157       .  T
C1494      N1500   1.157       .  T
C1495      N1504   1.157       .  T
C1496      N1502   1.157   1_545  T
C1505      C1506   1.410       .  A
C1505      C1510   1.409       .  A
C1505      C1523   1.450       .  S
C1506      C1511   1.495       .  S
C1506      C1507   1.411       .  A
C1507      C1508   1.410       .  A
C1507      C1512   1.451       .  S
C1508      C1509   1.413       .  A
C1508      C1524   1.451       .  S
C1509      C1510   1.411       .  A
C1510      C1513   1.451       .  S
C1511      C1514   1.407       .  A
C1511      C1518   1.406       .  A
C1512      N1529   1.157       .  T
C1513      N1531   1.157       .  T
C1514      C1515   1.410       .  A
C1514      C1519   1.453       .  S
C1515      C1516   1.426       .  A
C1515      C1521   1.452       .  S
C1516      C1517   1.425       .  A
C1517      C1518   1.412       .  A
C1517      C1520   1.451       .  S
C1518      C1522   1.451       .  S
C1519      N1526   1.157       .  T
C1520      N1527   1.157       .  T
C1521      N1525   1.158       .  T
C1522      N1528   1.157       .  T
C1523      N1532   1.157       .  T
C1524      N1530   1.157       .  T
C1533      C1534   1.408       .  A
C1533      C1538   1.408   1_545  A
C1533      C1551   1.452       .  S
C1534      C1539   1.494       .  S
C1534      C1535   1.409       .  A
C1535      C1536   1.413       .  A
C1535      C1540   1.451       .  S
C1536      C1537   1.418   1_545  A
C1536      C1552   1.450       .  S
C1537      C1538   1.420       .  A
C1538      C1541   1.452       .  S
C1539      C1542   1.411       .  A
C1539      C1546   1.409       .  A
C1540      N1557   1.157       .  T
C1541      N1559   1.158       .  T
C1542      C1543   1.410       .  A
C1542      C1547   1.450       .  S
C1543      C1544   1.412       .  A
C1543      C1549   1.449       .  S
C1544      C1545   1.416       .  A
C1545      C1546   1.410       .  A
C1545      C1548   1.451       .  S
C1546      C1550   1.451       .  S
C1547      N1554   1.157       .  T
C1548      N1555   1.157       .  T
C1549      N1553   1.157       .  T
C1550      N1556   1.157       .  T
C1551      N1560   1.157       .  T
C1552      N1558   1.157       .  T
C1561      C1562   1.410       .  A
C1561      C1566   1.412       .  A
C1561      C1579   1.450       .  S
C1562      C1567   1.493       .  S
C1562      C1563   1.409       .  A
C1563      C1564   1.408       .  A
C1563      C1568   1.452       .  S
C1564      C1565   1.415       .  A
C1564      C1580   1.452       .  S
C1565      C1566   1.414       .  A
C1566      C1569   1.450   1_545  S
C1567      C1570   1.410       .  A
C1567      C1574   1.409       .  A
C1568      N1585   1.157       .  T
C1569      N1587   1.157       .  T
C1570      C1571   1.411       .  A
C1570      C1575   1.451       .  S
C1571      C1572   1.416       .  A
C1571      C1577   1.451       .  S
C1572      C1573   1.417       .  A
C1573      C1574   1.409       .  A
C1573      C1576   1.452       .  S
C1574      C1578   1.451       .  S
C1575      N1582   1.157       .  T
C1576      N1583   1.158       .  T
C1577      N1581   1.157       .  T
C1578      N1584   1.157       .  T
C1579      N1588   1.157       .  T
C1580      N1586   1.157       .  T
C1589      C1590   1.411       .  A
C1589      C1594   1.415       .  A
C1589      C1607   1.450       .  S
C1590      C1595   1.498       .  S
C1590      C1591   1.409       .  A
C1591      C1592   1.409       .  A
C1591      C1596   1.452       .  S
C1592      C1593   1.419       .  A
C1592      C1608   1.453       .  S
C1593      C1594   1.416       .  A
C1594      C1597   1.449       .  S
C1595      C1598   1.409       .  A
C1595      C1602   1.411       .  A
C1596      N1613   1.157       .  T
C1597      N1615   1.157       .  T
C1598      C1599   1.410       .  A
C1598      C1603   1.451       .  S
C1599      C1600   1.417       .  A
C1599      C1605   1.452       .  S
C1600      C1601   1.416       .  A
C1601      C1602   1.413       .  A
C1601      C1604   1.451   1_545  S
C1602      C1606   1.450       .  S
C1603      N1610   1.157       .  T
C1604      N1611   1.157       .  T
C1605      N1609   1.157       .  T
C1606      N1612   1.157       .  T
C1607      N1616   1.157       .  T
C1608      N1614   1.158       .  T
C1617      C1618   1.411       .  A
C1617      C1622   1.414       .  A
C1617      C1635   1.449       .  S
C1618      C1623   1.500       .  S
C1618      C1619   1.411       .  A
C1619      C1620   1.411       .  A
C1619      C1624   1.451       .  S
C1620      C1621   1.415       .  A
C1620      C1636   1.452       .  S
C1621      C1622   1.414       .  A
C1622      C1625   1.450       .  S
C1623      C1626   1.413       .  A
C1623      C1630   1.410       .  A
C1624      N1641   1.157       .  T
C1625      N1643   1.157       .  T
C1626      C1627   1.414       .  A
C1626      C1631   1.450       .  S
C1627      C1628   1.413       .  A
C1627      C1633   1.450       .  S
C1628      C1629   1.414       .  A
C1629      C1630   1.411       .  A
C1629      C1632   1.451       .  S
C1630      C1634   1.450       .  S
C1631      N1638   1.157       .  T
C1632      N1639   1.157       .  T
C1633      N1637   1.157       .  T
C1634      N1640   1.157       .  T
C1635      N1644   1.157       .  T
C1636      N1642   1.157       .  T
C1645      C1646   1.409       .  A
C1645      C1650   1.410       .  A
C1645      C1663   1.452       .  S
C1646      C1651   1.500       .  S
C1646      C1647   1.410       .  A
C1647      C1648   1.415       .  A
C1647      C1652   1.450       .  S
C1648      C1649   1.418       .  A
C1648      C1664   1.450       .  S
C1649      C1650   1.419       .  A
C1650      C1653   1.452       .  S
C1651      C1654   1.411       .  A
C1651      C1658   1.409       .  A
C1652      N1669   1.157       .  T
C1653      N1671   1.157       .  T
C1654      C1655   1.415       .  A
C1654      C1659   1.450       .  S
C1655      C1656   1.418       .  A
C1655      C1661   1.451       .  S
C1656      C1657   1.418       .  A
C1657      C1658   1.411       .  A
C1657      C1660   1.452       .  S
C1658      C1662   1.451       .  S
C1659      N1666   1.157       .  T
C1660      N1667   1.157       .  T
C1661      N1665   1.158       .  T
C1662      N1668   1.157       .  T
C1663      N1672   1.157       .  T
C1664      N1670   1.157       .  T
