geometry optimzed in LAMMPS
_audit_creation_date              2020-11-30 
_audit_creation_method            'lammps2cif' 
_symmetry_space_group_name_H-M    'P1' 
_symmetry_Int_Tables_number       1 
_symmetry_cell_setting            triclinic 
loop_ 
_symmetry_equiv_pos_as_xyz 
  x,y,z 
_cell_length_a                    37.1344734 
_cell_length_b                    36.80187297058668 
_cell_length_c                    54.165147668151754 
_cell_angle_alpha                 90.174661719482 
_cell_angle_beta                  90.75637095105272 
_cell_angle_gamma                 120.32370017341475 
loop_ 
_atom_site_label 
_atom_site_type_symbol 
_atom_site_fract_x 
_atom_site_fract_y 
_atom_site_fract_z 
_atom_site_charge 
C1          C  0.00517536  0.00002157  0.77440753     0.45900
H2          H  0.00841288  0.00081908  0.79488810    -0.03200
C3          C  0.99717213  0.49677271  0.72697238     0.45900
H4          H  0.99374773  0.49510036  0.70649151    -0.03200
C5          C  0.46490726  0.46175365  0.76493354    -0.16900
C6          C  0.00473603  0.03830003  0.76369140    -0.16600
C7          C  0.04044675  0.99845729  0.76112801    -0.17000
C8          C  0.46132057  0.45929920  0.73987327    -0.17000
C9          C  0.99892561  0.03577667  0.73858634    -0.16500
C10         C  0.03686437  0.99785884  0.73606941    -0.16800
O11         O  0.24664647  0.10920502  0.97142766    -0.78100
C12         C  0.25915758  0.18463980  0.03843493     0.83000
O13         O  0.35914681  0.26118909  0.97165511    -0.79200
O14         O  0.39415664  0.21920244  0.05132169    -0.80700
O15         O  0.33489332  0.08567342  0.01896599    -0.80500
O16         O  0.29032721  0.08447116  0.96846300    -0.79100
Zn17       Zn  0.28247477  0.16538672  0.98879470     1.55700
O18         O  0.32174659  0.11365371  0.05184962    -0.80500
Cd19       Cd  0.34084619  0.12452553  0.98995306     1.59700
Cd20       Cd  0.38100888  0.22549887  0.98918329     1.59600
O21         O  0.39591781  0.14536115  0.97062515    -0.80500
O22         O  0.33427270  0.17191504  0.00160071    -1.91000
Cd23       Cd  0.33520600  0.17270639  0.03855412     1.59900
O24         O  0.41761577  0.21373681  0.96607958    -0.80500
O25         O  0.28997543  0.18625580  0.05024010    -0.79100
C26         C  0.32228308  0.24967333  0.96386111     0.83400
C27         C  0.25490255  0.08109682  0.96451330     0.83100
O28         O  0.25177488  0.17405759  0.01577334    -0.78100
C29         C  0.32382560  0.08360225  0.04135344     0.83900
O30         O  0.29184121  0.21265145  0.96701189    -0.78200
C31         C  0.42171540  0.18179079  0.96242942     0.84000
C32         C  0.42431584  0.25033948  0.04051935     0.84400
O33         O  0.42225202  0.25813604  0.01778982    -0.80600
C34         C  0.32212179  0.32832866  0.91909337     0.03500
C35         C  0.29197110  0.33561406  0.92985704    -0.12600
C36         C  0.27216380  0.31492640  0.95142846     0.01000
C37         C  0.28181559  0.28623026  0.96211575    -0.11100
C38         C  0.31312906  0.28015793  0.95226698     0.03500
C39         C  0.33382676  0.30185573  0.93112302    -0.10600
H40         H  0.28244330  0.35587314  0.92105355     0.09100
H41         H  0.26583563  0.26955785  0.97861088     0.06700
H42         H  0.35797256  0.29692245  0.92367319     0.06500
O43         O  0.16644685  0.25116452  0.01590911    -0.78100
C44         C  0.07510761  0.25884968  0.96304911     0.83000
O45         O  0.25305908  0.36003564  0.97119143    -0.79200
O46         O  0.14210035  0.40160432  0.97213560    -0.80700
O47         O  0.10877205  0.32144797  0.05105228    -0.80500
O48         O  0.18151066  0.29132819  0.04978344    -0.79100
Zn49       Zn  0.15802331  0.28273060  0.98833402     1.55700
O50         O  0.08060215  0.33563908  0.01851740    -0.80500
Cd51       Cd  0.16684054  0.33595728  0.03756454     1.59700
Cd52       Cd  0.21845768  0.38244274  0.98835627     1.59600
O53         O  0.21134867  0.39602087  0.04967085    -0.80500
O54         O  0.16552002  0.33528388  0.00077557    -1.91000
Cd55       Cd  0.11950733  0.34381130  0.98952634     1.59900
O56         O  0.25044875  0.42487804  0.01647760    -0.80500
O57         O  0.07999303  0.29527351  0.96660338    -0.79100
C58         C  0.24155586  0.32304493  0.96319499     0.83400
C59         C  0.17856175  0.25946813  0.03839483     0.83100
O60         O  0.10159692  0.24880160  0.97070735    -0.78100
C61         C  0.07891953  0.32392808  0.04082195     0.83900
O62         O  0.20489906  0.29210049  0.96632550    -0.78200
C63         C  0.24191942  0.42685679  0.03896451     0.84000
C64         C  0.17776227  0.42631415  0.96296373     0.84400
O65         O  0.20818726  0.41976615  0.96480572    -0.80600
C66         C  0.18967324  0.19088604  0.08621634     0.03500
C67         C  0.21775175  0.18175736  0.07463451    -0.12600
C68         C  0.23147232  0.19623037  0.05094459     0.01000
C69         C  0.21760847  0.22084653  0.03891159    -0.11100
C70         C  0.19149339  0.23237165  0.05098433     0.03500
C71         C  0.17781329  0.21753678  0.07477904    -0.10600
H72         H  0.22746153  0.16175544  0.08365603     0.09100
H73         H  0.22812867  0.23206796  0.02042750     0.06700
H74         H  0.15618676  0.22473656  0.08373489     0.06500
C75         C  0.17397016  0.00412704  0.91874393     0.03500
C76         C  0.16642507  0.46583599  0.92937425    -0.12600
C77         C  0.18569473  0.46569382  0.95160191     0.01000
C78         C  0.21460369  0.00374932  0.96282680    -0.11100
C79         C  0.22237634  0.04198940  0.95287569     0.03500
C80         C  0.20099685  0.04219214  0.93145263    -0.10600
H81         H  0.14717375  0.43587401  0.92017235     0.09100
H82         H  0.23084087  0.00359625  0.97959806     0.06700
H83         H  0.20684118  0.07216713  0.92450892     0.06500
C84         C  0.50355876  0.30777464  0.09260501     0.03500
C85         C  0.46527244  0.28604065  0.07920409    -0.12600
C86         C  0.46422926  0.27657916  0.05404487     0.01000
C87         C  0.50180130  0.29057653  0.04169254    -0.11100
C88         C  0.04012507  0.31109191  0.05450281     0.03500
C89         C  0.04071827  0.31814301  0.08002053    -0.10600
H90         H  0.43593502  0.27741232  0.08771104     0.09100
H91         H  0.50110842  0.28358378  0.02216819     0.06700
H92         H  0.07047829  0.33252337  0.08966113     0.06500
C93         C  0.99762896  0.17592929  0.91838145     0.03500
C94         C  0.03568149  0.20556834  0.92988205    -0.12600
C95         C  0.03595650  0.22706104  0.95118580     0.01000
C96         C  0.99823510  0.21937220  0.96109752    -0.11100
C97         C  0.46009430  0.18900002  0.95055956     0.03500
C98         C  0.45969169  0.16694875  0.92928305    -0.10600
H99         H  0.06523037  0.21356188  0.92173150     0.09100
H100        H  0.99856731  0.23644633  0.97755410     0.06700
H101        H  0.43011312  0.14362897  0.92108275     0.06500
C102        C  0.30264568  0.50238016  0.09122128     0.03500
C103        C  0.27518280  0.46542392  0.07802620    -0.12600
C104        C  0.26792079  0.46647996  0.05283956     0.01000
C105        C  0.28554816  0.50546672  0.04100490    -0.11100
C106        C  0.30946017  0.04332539  0.05436445     0.03500
C107        C  0.31825576  0.04167273  0.07957429    -0.10600
H108        H  0.26124732  0.43520324  0.08709309     0.09100
H109        H  0.27904819  0.50638187  0.02151338     0.06700
H110        H  0.33883566  0.07056496  0.08957009     0.06500
O111        O  0.24858590  0.16504552  0.48128312    -0.78100
C112        C  0.25668758  0.07595496  0.53651420     0.83000
O113        O  0.35825545  0.25235905  0.53136422    -0.79200
O114        O  0.39803627  0.13978915  0.52834642    -0.80700
O115        O  0.31842559  0.10469155  0.44922228    -0.80500
O116        O  0.28800689  0.17821831  0.44810430    -0.79100
Zn117      Zn  0.28011425  0.15755600  0.50971693     1.55700
O118        O  0.32930619  0.07636714  0.48287208    -0.80500
Cd119      Cd  0.33283949  0.16456098  0.46180081     1.59700
Cd120      Cd  0.38005834  0.21824838  0.51221523     1.59600
O121        O  0.39214201  0.21023048  0.45035876    -0.80500
O122        O  0.33263025  0.16486250  0.49875145    -1.91000
Cd123      Cd  0.34016691  0.11835835  0.51104310     1.59900
O124        O  0.41946452  0.25132349  0.48395793    -0.80500
O125        O  0.29302550  0.08114239  0.53423537    -0.79100
C126        C  0.32104076  0.24123893  0.53756066     0.83400
C127        C  0.25642638  0.17592965  0.45875963     0.83100
O128        O  0.24636156  0.10152709  0.52747459    -0.78100
C129        C  0.31876509  0.07413206  0.46021176     0.83900
O130        O  0.29002377  0.20536710  0.53183922    -0.78200
C131        C  0.42183205  0.24224066  0.46152770     0.84000
C132        C  0.42479385  0.17627941  0.53663250     0.84400
O133        O  0.42003507  0.20800085  0.53407770    -0.80600
C134        C  0.32185303  0.31802087  0.58489792     0.03500
C135        C  0.33033718  0.28883598  0.57309626    -0.12600
C136        C  0.31245355  0.27140546  0.55009680     0.01000
C137        C  0.28444699  0.28143358  0.53907065    -0.11100
C138        C  0.27607436  0.31073350  0.55005971     0.03500
C139        C  0.29567341  0.32998534  0.57252584    -0.10600
H140        H  0.34922637  0.27779763  0.58196224     0.09100
H141        H  0.26958351  0.26685634  0.52154251     0.06700
H142        H  0.28945623  0.35326300  0.58040767     0.06500
O143        O  0.10468763  0.23970980  0.52855239    -0.78100
C144        C  0.17566102  0.25018274  0.45948033     0.83000
O145        O  0.25598928  0.35623740  0.53113701    -0.79200
O146        O  0.21198265  0.38736202  0.44940012    -0.80700
O147        O  0.07991881  0.32589648  0.48547168    -0.80500
O148        O  0.08445710  0.28645310  0.53565321    -0.79100
Zn149      Zn  0.16071747  0.27536591  0.51088541     1.55700
O150        O  0.10682800  0.31557461  0.45126856    -0.80500
Cd151      Cd  0.12177488  0.33519782  0.51316340     1.59700
Cd152      Cd  0.22130687  0.37704443  0.51157892     1.59600
O153        O  0.14270762  0.39268674  0.53115049    -0.80500
O154        O  0.16761462  0.32837262  0.49955046    -1.91000
Cd155      Cd  0.16605990  0.32844178  0.46251338     1.59900
O156        O  0.21134089  0.41754746  0.53286374    -0.80500
O157        O  0.17652406  0.28139442  0.44861939    -0.79100
C158        C  0.24540429  0.31897674  0.53786211     0.83400
C159        C  0.07897370  0.24957139  0.53746407     0.83100
O160        O  0.16743740  0.24342959  0.48238253    -0.78100
C161        C  0.07715501  0.31603600  0.46271673     0.83900
O162        O  0.20963887  0.28729755  0.53270855    -0.78200
C163        C  0.17964485  0.42100120  0.53745203     0.84000
C164        C  0.24441997  0.41747403  0.45997103     0.84400
O165        O  0.25365315  0.41580185  0.48255176    -0.80600
C166        C  0.17782815  0.00020539  0.58191565     0.03500
C167        C  0.20668920  0.03807082  0.57036798    -0.12600
C168        C  0.22538098  0.03718241  0.54835342     0.01000
C169        C  0.21639748  0.99857054  0.53806045    -0.11100
C170        C  0.18716013  0.46064824  0.54880837     0.03500
C171        C  0.16712281  0.46144220  0.57036223    -0.10600
H172        H  0.21635312  0.06832868  0.57889604     0.09100
H173        H  0.23191636  0.99803156  0.52134213     0.06700
H174        H  0.14420543  0.43188794  0.57833614     0.06500
C175        C  0.00054071  0.17129662  0.58232746     0.03500
C176        C  0.46303536  0.16376780  0.57074525    -0.12600
C177        C  0.46366157  0.18294525  0.54841870     0.01000
C178        C  0.00197043  0.21039271  0.53765541    -0.11100
C179        C  0.03959144  0.21751202  0.54845419     0.03500
C180        C  0.03880782  0.19748751  0.57057079    -0.10600
H181        H  0.43330173  0.14462885  0.57952606     0.09100
H182        H  0.00252805  0.22631003  0.52071541     0.06700
H183        H  0.06800227  0.20346753  0.57888691     0.06500
C184        C  0.50076745  0.30572036  0.41276188     0.03500
C185        C  0.46236600  0.28075102  0.42434452    -0.12600
C186        C  0.46156260  0.26839259  0.44885571     0.01000
C187        C  0.49939857  0.28096606  0.46157332    -0.11100
C188        C  0.03768709  0.30377031  0.44954934     0.03500
C189        C  0.03804466  0.31522809  0.42505056    -0.10600
H190        H  0.43342690  0.27308149  0.41490378     0.09100
H191        H  0.49895778  0.27166753  0.48059456     0.06700
H192        H  0.06764528  0.33362530  0.41592332     0.06500
C193        C  0.19370602  0.19097466  0.40722689     0.03500
C194        C  0.17812748  0.21321365  0.42066679    -0.12600
C195        C  0.18782439  0.22294724  0.44588484     0.01000
C196        C  0.21177192  0.20868277  0.45818413    -0.11100
C197        C  0.22902527  0.18810844  0.44532330     0.03500
C198        C  0.22119547  0.18085177  0.41983804    -0.10600
H199        H  0.15749624  0.22231708  0.41213188     0.09100
H200        H  0.21913575  0.21586826  0.47766479     0.06700
H201        H  0.23645379  0.16673536  0.41024609     0.06500
C202        C  0.30606361  0.49656831  0.40976539     0.03500
C203        C  0.31514423  0.03422660  0.42198605    -0.12600
C204        C  0.30554741  0.03418235  0.44679314     0.01000
C205        C  0.28374744  0.49564907  0.45910217    -0.11100
C206        C  0.27057720  0.45726692  0.44664127     0.03500
C207        C  0.28211279  0.45784322  0.42195038    -0.10600
H208        H  0.33160089  0.06407325  0.41258118     0.09100
H209        H  0.27549412  0.49545368  0.47825106     0.06700
H210        H  0.27417981  0.42845270  0.41282532     0.06500
C211        C  0.49282155  0.99005590  0.22601313     0.45900
H212        H  0.48842690  0.98321690  0.20586146    -0.03200
C213        C  0.00267146  0.00598426  0.27286790     0.45900
H214        H  0.00672317  0.51265094  0.29305564    -0.03200
C215        C  0.03291520  0.03165355  0.23279367    -0.16900
C216        C  0.45687182  0.49305870  0.23753015    -0.16600
C217        C  0.49581222  0.45632938  0.24078485    -0.17000
C218        C  0.03783422  0.04009294  0.25766699    -0.17000
C219        C  0.46238157  0.50201217  0.26224486    -0.16500
C220        C  0.50109287  0.46465022  0.26560471    -0.16800
C221        C  0.42576058  0.07077743  0.35487263    -0.17400
C222        C  0.44666251  0.07300066  0.33325189    -0.19600
C223        C  0.42800805  0.04065471  0.31552746     0.21100
C224        C  0.38732044  0.50636897  0.31908856    -0.02500
C225        C  0.36601712  0.50439985  0.34083363    -0.05600
C226        C  0.38576211  0.03642002  0.35890962     0.21300
C227        C  0.32576937  0.46976898  0.34490805     0.19500
C228        C  0.30697846  0.43775748  0.32687247    -0.17100
C229        C  0.32841944  0.43936507  0.30541602    -0.19300
C230        C  0.36884063  0.47322524  0.30151693     0.21000
C231        C  0.39215246  0.47347775  0.28121403    -0.32300
C232        C  0.43346393  0.50645209  0.27859276     0.01700
C233        C  0.45042987  0.04071793  0.29510061    -0.23600
C234        C  0.36576698  0.03311929  0.38107763    -0.28200
C235        C  0.32549469  0.49899169  0.38547383     0.07400
C236        C  0.30552153  0.46745346  0.36713852    -0.26900
H237        H  0.44114436  0.09563121  0.36862017     0.12100
H238        H  0.47791027  0.09937962  0.33072888     0.13200
H239        H  0.27606766  0.41098773  0.32961897     0.12300
H240        H  0.31371780  0.41370180  0.29211481     0.11500
H241        H  0.37940276  0.44678694  0.26857724     0.16900
H242        H  0.48235054  0.06602681  0.29297416     0.12800
H243        H  0.38242503  0.05684500  0.39526547     0.15700
H244        H  0.27448666  0.44109226  0.37018028     0.15500
C245        C  0.09526303  0.16787580  0.30861535    -0.17400
C246        C  0.11705640  0.18873226  0.33027275    -0.19600
C247        C  0.14106100  0.17513524  0.34325682     0.21100
C248        C  0.14502819  0.14181593  0.33350659    -0.02500
C249        C  0.12446449  0.12190159  0.31109954    -0.05600
C250        C  0.09810772  0.13388725  0.29915478     0.21300
C251        C  0.12810612  0.08818355  0.30153996     0.19500
C252        C  0.15288006  0.07526034  0.31415650    -0.17100
C253        C  0.17213852  0.09413222  0.33670711    -0.19300
C254        C  0.16774002  0.12690417  0.34674645     0.21000
C255        C  0.18399488  0.14347912  0.37031414    -0.32300
C256        C  0.17980495  0.17646245  0.38079373     0.01700
C257        C  0.15963892  0.19314744  0.36627276    -0.23600
C258        C  0.07272497  0.10961122  0.27918519    -0.28200
C259        C  0.07455657  0.07455252  0.27059181     0.07400
C260        C  0.10424422  0.06578153  0.28071760    -0.26900
H261        H  0.07537146  0.17766913  0.29960660     0.12100
H262        H  0.11369243  0.21436765  0.33742742     0.13200
H263        H  0.15583051  0.04928624  0.30715377     0.12300
H264        H  0.18975295  0.08245086  0.34656804     0.11500
H265        H  0.19815179  0.12875730  0.38063610     0.16900
H266        H  0.15708006  0.21946003  0.37285576     0.12800
H267        H  0.04933800  0.11595823  0.27155661     0.15700
H268        H  0.10525954  0.03845557  0.27412946     0.15500
C269        C  0.44985714  0.30607238  0.32793974    -0.17400
C270        C  0.45065622  0.32833734  0.30686418    -0.19600
C271        C  0.47901673  0.37171752  0.30539956     0.21100
C272        C  0.50737345  0.39272430  0.32513903    -0.02500
C273        C  0.50641110  0.37043040  0.34636082    -0.05600
C274        C  0.47728265  0.32691704  0.34787903     0.21300
C275        C  0.03389655  0.39198756  0.36632346     0.19500
C276        C  0.06246458  0.43525293  0.36487429    -0.17100
C277        C  0.06346399  0.45732683  0.34381856    -0.19300
C278        C  0.03580516  0.43636652  0.32404655     0.21000
C279        C  0.03504094  0.45873817  0.30362078    -0.32300
C280        C  0.50596702  0.43853900  0.28437070     0.01700
C281        C  0.47846933  0.39486887  0.28505275    -0.23600
C282        C  0.47572379  0.30531959  0.36948096    -0.28200
C283        C  0.50294255  0.32691154  0.38938972     0.07400
C284        C  0.03185355  0.37013358  0.38764592    -0.26900
H285        H  0.42739105  0.27268837  0.32879285     0.12100
H286        H  0.42871244  0.31176081  0.29186145     0.13200
H287        H  0.08370492  0.45208032  0.38012622     0.12300
H288        H  0.08536680  0.49089328  0.34315563     0.11500
H289        H  0.05601496  0.49235506  0.30328799     0.16900
H290        H  0.45514176  0.37937523  0.27057684     0.12800
H291        H  0.45339434  0.27195271  0.37088180     0.15700
H292        H  0.05217723  0.38709930  0.40323441     0.15500
C293        C  0.35519998  0.05256074  0.17692317    -0.17400
C294        C  0.37560597  0.05022997  0.19830664    -0.19600
C295        C  0.38522540  0.01808689  0.20087359     0.21100
C296        C  0.37245060  0.48690339  0.18220964    -0.02500
C297        C  0.35267481  0.48972626  0.16053858    -0.05600
C298        C  0.34455193  0.02309408  0.15763436     0.21300
C299        C  0.34290059  0.46023583  0.14128096     0.19500
C300        C  0.35088157  0.42708400  0.14413937    -0.17100
C301        C  0.36987839  0.42392476  0.16570929    -0.19300
C302        C  0.38160331  0.45420316  0.18451899     0.21000
C303        C  0.40503916  0.45400974  0.20472270    -0.32300
C304        C  0.42136931  0.48708520  0.22200903     0.01700
C305        C  0.40988966  0.01808700  0.22079139    -0.23600
C306        C  0.32718440  0.02699884  0.13522604    -0.28200
C307        C  0.31856556  0.49822837  0.11572409     0.07400
C308        C  0.32662505  0.46505485  0.11907887    -0.26900
H309        H  0.34895116  0.07819014  0.17514417     0.12100
H310        H  0.38490656  0.07424502  0.21252193     0.13200
H311        H  0.34322725  0.40410094  0.12947142     0.12300
H312        H  0.37682123  0.39872641  0.16729007     0.11500
H313        H  0.41363361  0.42994221  0.20590355     0.16900
H314        H  0.42282224  0.04382634  0.23409882     0.12800
H315        H  0.32098444  0.05257451  0.13285512     0.15700
H316        H  0.32151720  0.44342957  0.10401302     0.15500
C317        C  0.07836150  0.40755558  0.16225120    -0.17400
C318        C  0.07759438  0.42630927  0.18457678    -0.19600
C319        C  0.03997081  0.41176215  0.19705889     0.21100
C320        C  0.50313932  0.37679204  0.18755752    -0.02500
C321        C  0.50428330  0.35693372  0.16548720    -0.05600
C322        C  0.04173075  0.37325951  0.15237978     0.21300
C323        C  0.46756056  0.32206075  0.15595800     0.19500
C324        C  0.43000445  0.30714416  0.16865057    -0.17100
C325        C  0.42845128  0.32804350  0.18988411    -0.19300
C326        C  0.46471690  0.36329761  0.19925319     0.21000
C327        C  0.46285692  0.38713872  0.21894823    -0.32300
C328        C  0.49918828  0.42308417  0.22762027     0.01700
C329        C  0.03790749  0.43357325  0.21773315    -0.23600
C330        C  0.04157582  0.35646965  0.12907497    -0.28200
C331        C  0.50483753  0.32202842  0.11889143     0.09800
C332        C  0.46851919  0.30381124  0.13337508    -0.26900
H333        H  0.10748084  0.42039581  0.15246740     0.12100
H334        H  0.10606873  0.45334444  0.19151783     0.13200
H335        H  0.40144500  0.28038287  0.16157007     0.12300
H336        H  0.39873742  0.31714754  0.19868850     0.11500
H337        H  0.43290960  0.37953397  0.22638303     0.16900
H338        H  0.06576332  0.46170830  0.22434961     0.12800
H339        H  0.06996003  0.37202360  0.11864081     0.15700
H340        H  0.44025671  0.27615185  0.12697938     0.15500
C341        C  0.12185911  0.16786823  0.19212526    -0.17400
C342        C  0.14292701  0.19010995  0.17115538    -0.19600
C343        C  0.14655531  0.16880556  0.15068508     0.21100
C344        C  0.12956585  0.12478119  0.15150160    -0.02500
C345        C  0.10865002  0.10249589  0.17264355    -0.05600
C346        C  0.10429802  0.12404376  0.19295266     0.21300
C347        C  0.09105452  0.05847605  0.17316364     0.19500
C348        C  0.09484549  0.03703118  0.15283601    -0.17100
C349        C  0.11549908  0.05910892  0.13183523    -0.19300
C350        C  0.13272349  0.10285934  0.13100038     0.21000
C351        C  0.15265508  0.12501097  0.10988737    -0.32300
C352        C  0.16959006  0.16876551  0.10895579     0.01700
C353        C  0.16645975  0.19058956  0.12930874    -0.23600
C354        C  0.08115114  0.10115795  0.21330483    -0.28200
C355        C  0.06270405  0.05718042  0.21355121     0.07400
C356        C  0.06866198  0.03635827  0.19365997    -0.26900
H357        H  0.11886065  0.18486980  0.20757764     0.12100
H358        H  0.15593201  0.22390144  0.17082667     0.13200
H359        H  0.08133121  0.00314758  0.15305675     0.12300
H360        H  0.11774393  0.04196468  0.11619397     0.11500
H361        H  0.15444639  0.10811793  0.09394273     0.16900
H362        H  0.17962922  0.22439625  0.12847971     0.12800
H363        H  0.07568004  0.11733559  0.22819040     0.15700
H364        H  0.05450388  0.00255798  0.19356647     0.15500
C365        C  0.37576317  0.31741511  0.83813449    -0.17400
C366        C  0.39426981  0.33516470  0.81566066    -0.19600
C367        C  0.40174995  0.37523993  0.80922880     0.21100
C368        C  0.38956133  0.39724597  0.82538124    -0.02500
C369        C  0.37178838  0.37976551  0.84823247    -0.05600
C370        C  0.36509103  0.33977851  0.85466618     0.21300
C371        C  0.36189868  0.40285995  0.86492203     0.19500
C372        C  0.36841033  0.44251225  0.85828579    -0.17100
C373        C  0.38563697  0.45970991  0.83551903    -0.19300
C374        C  0.39687544  0.43758300  0.81920477     0.21000
C375        C  0.41762451  0.45619841  0.79750679    -0.32300
C376        C  0.43228348  0.43568841  0.78234317     0.01700
C377        C  0.42328604  0.39478449  0.78767711    -0.23600
C378        C  0.34841816  0.32309297  0.87767020    -0.28200
C379        C  0.33961245  0.34639731  0.89473754     0.07400
C380        C  0.34642875  0.38629177  0.88814610    -0.26900
H381        H  0.37068755  0.28659508  0.84284117     0.12100
H382        H  0.40336615  0.31785681  0.80350401     0.13200
H383        H  0.36074685  0.46048491  0.87085328     0.12300
H384        H  0.39124484  0.49078794  0.83095814     0.11500
H385        H  0.42524219  0.48808445  0.79329875     0.16900
H386        H  0.43550638  0.37959164  0.77606273     0.12800
H387        H  0.34217230  0.29179631  0.88218889     0.15700
H388        H  0.34035748  0.40485613  0.90119251     0.15500
C389        C  0.44362164  0.12731531  0.83307697    -0.17400
C390        C  0.44630030  0.11091552  0.81023639    -0.19600
C391        C  0.47845360  0.10230413  0.80593016     0.21100
C392        C  0.00864788  0.11112483  0.82473699    -0.02500
C393        C  0.00517561  0.12633595  0.84796212    -0.05600
C394        C  0.47253416  0.13453471  0.85217319     0.21300
C395        C  0.03393590  0.13251733  0.86710609     0.19500
C396        C  0.06650448  0.12460010  0.86277393    -0.17100
C397        C  0.07045434  0.11035753  0.83964416    -0.19300
C398        C  0.04145721  0.10317727  0.82068044     0.21000
C399        C  0.04315172  0.08545324  0.79830143    -0.32300
C400        C  0.01092856  0.07246193  0.78060836     0.01700
C401        C  0.47956262  0.08256432  0.78388054    -0.23600
C402        C  0.46952549  0.14988658  0.87536956    -0.28200
C403        C  0.99827883  0.15628137  0.89452308     0.07400
C404        C  0.02978416  0.14658726  0.89028165    -0.26900
H405        H  0.41843497  0.13357936  0.83596784     0.12100
H406        H  0.42290743  0.10445434  0.79605610     0.13200
H407        H  0.08885707  0.12931578  0.87729776     0.12300
H408        H  0.09553784  0.10389898  0.83677751     0.11500
H409        H  0.06729432  0.07758721  0.79569978     0.16900
H410        H  0.45434680  0.07193049  0.77037696     0.12800
H411        H  0.44540477  0.15770550  0.87830282     0.15700
H412        H  0.05149416  0.15038111  0.90501194     0.15500
C413        C  0.17660907  0.07411935  0.83961673    -0.17400
C414        C  0.16020109  0.07244644  0.81594416    -0.19600
C415        C  0.12676228  0.03460869  0.80661641     0.21100
C416        C  0.10979228  0.99811953  0.82126720    -0.02500
C417        C  0.12519501  0.00029029  0.84543568    -0.05600
C418        C  0.15907166  0.03825914  0.85456971     0.21300
C419        C  0.10594532  0.46471701  0.86066256     0.19500
C420        C  0.07255769  0.42683084  0.85141806    -0.17100
C421        C  0.05798313  0.42431624  0.82727045    -0.19300
C422        C  0.07598697  0.45992385  0.81224882     0.21000
C423        C  0.05836938  0.45884240  0.78918875    -0.32300
C424        C  0.07231982  0.99586255  0.77579161     0.01700
C425        C  0.10781165  0.03320081  0.78377484    -0.23600
C426        C  0.17491263  0.03959863  0.87842510    -0.28200
C427        C  0.15576273  0.00409061  0.89391673     0.07400
C428        C  0.12016351  0.46741512  0.88493268    -0.26900
H429        H  0.20249191  0.10365650  0.84640848     0.12100
H430        H  0.17335907  0.10082181  0.80504361     0.13200
H431        H  0.05762831  0.39914993  0.86289671     0.12300
H432        H  0.03173501  0.39490284  0.82061680     0.11500
H433        H  0.03017858  0.43046535  0.78314112     0.16900
H434        H  0.11773345  0.06193892  0.77355680     0.12800
H435        H  0.20265182  0.06817285  0.88444285     0.15700
H436        H  0.10313888  0.44040582  0.89662085     0.15500
C437        C  0.33503551  0.39857735  0.68844694    -0.17400
C438        C  0.31683028  0.38065685  0.66548914    -0.19600
C439        C  0.33524455  0.36399608  0.65009113     0.21100
C440        C  0.37124742  0.36374008  0.65835907    -0.02500
C441        C  0.38869842  0.38034700  0.68183791    -0.05600
C442        C  0.37132514  0.39914816  0.69663114     0.21300
C443        C  0.42510411  0.38051581  0.68981941     0.19500
C444        C  0.44313480  0.36326266  0.67469176    -0.17100
C445        C  0.42639218  0.34776116  0.65122204    -0.19300
C446        C  0.39093170  0.34855279  0.64277051     0.21000
C447        C  0.37557868  0.33536033  0.61874882    -0.32300
C448        C  0.33906578  0.33444993  0.61025987     0.01700
C449        C  0.31874041  0.34829403  0.62642240    -0.23600
C450        C  0.39246154  0.42095802  0.71830538    -0.28200
C451        C  0.43020230  0.42350249  0.72514217     0.07400
C452        C  0.44493642  0.40117273  0.71179062    -0.26900
H453        H  0.32125179  0.41278776  0.69955435     0.12100
H454        H  0.28910279  0.38105016  0.65943900     0.13200
H455        H  0.47117531  0.36334309  0.68060165     0.12300
H456        H  0.44159758  0.33578638  0.63951280     0.11500
H457        H  0.39293264  0.32656207  0.60666569     0.16900
H458        H  0.29002754  0.34695318  0.62080990     0.12800
H459        H  0.38178636  0.43904756  0.72850719     0.15700
H460        H  0.47462011  0.40410905  0.71702431     0.15500
C461        C  0.06232848  0.18094019  0.66575065    -0.17400
C462        C  0.06104618  0.16332493  0.68884145    -0.19600
C463        C  0.02672104  0.12432927  0.69516051     0.21100
C464        C  0.99299849  0.10331902  0.67817305    -0.02500
C465        C  0.99489963  0.12042661  0.65465738    -0.05600
C466        C  0.02972421  0.15941374  0.64839447     0.21300
C467        C  0.46245524  0.09788511  0.63719144     0.19500
C468        C  0.42780913  0.05919891  0.64356623    -0.17100
C469        C  0.42555039  0.04259001  0.66698642    -0.19300
C470        C  0.45819102  0.06417396  0.68422362     0.21000
C471        C  0.45796209  0.04574421  0.70669156    -0.32300
C472        C  0.99303095  0.06441836  0.72249864     0.01700
C473        C  0.02663917  0.10451991  0.71733693    -0.23600
C474        C  0.03146235  0.17595936  0.62482953    -0.28200
C475        C  0.99943904  0.15336672  0.60712776     0.07400
C476        C  0.46532718  0.11406719  0.61352402    -0.26900
H477        H  0.08929611  0.21096046  0.66124672     0.12100
H478        H  0.08718771  0.17989194  0.70160214     0.13200
H479        H  0.40261557  0.04160204  0.63035649     0.12300
H480        H  0.39884149  0.01227764  0.67137135     0.11500
H481        H  0.43237109  0.01447506  0.71068074     0.16900
H482        H  0.05404229  0.11835923  0.72935193     0.12800
H483        H  0.05758125  0.20662030  0.62044510     0.15700
H484        H  0.44092995  0.09569626  0.60002712     0.15500
C485        C  0.10315781  0.93712916  0.68572589    -0.17400
C486        C  0.12155439  0.93692956  0.66336968    -0.19600
C487        C  0.13358120  0.96998722  0.64660143     0.21100
C488        C  0.12817246  0.00416141  0.65270910    -0.02500
C489        C  0.11050756  0.00483777  0.67544134    -0.05600
C490        C  0.09712751  0.97073071  0.69184709     0.21300
C491        C  0.10460217  0.03883038  0.68125827     0.19500
C492        C  0.11706510  0.07213983  0.66471599    -0.17100
C493        C  0.13411510  0.07120035  0.64209065    -0.19300
C494        C  0.13926357  0.03711269  0.63580884     0.21000
C495        C  0.15452534  0.03510388  0.61269391    -0.32300
C496        C  0.16038491  0.00132322  0.60635736     0.01700
C497        C  0.15036002  0.96918268  0.62370127    -0.23600
C498        C  0.07604152  0.96994419  0.71336968    -0.28200
C499        C  0.06856493  0.00291827  0.71839026     0.07400
C500        C  0.08415688  0.03781189  0.70285730    -0.26900
H501        H  0.09309782  0.91072327  0.69805665     0.12100
H502        H  0.12554066  0.91044990  0.65895238     0.13200
H503        H  0.11258632  0.09837061  0.66899613     0.12300
H504        H  0.14274201  0.09685791  0.62935710     0.11500
H505        H  0.16108504  0.55966380  0.59953029     0.16900
H506        H  0.15568765  0.94349820  0.61952847     0.12800
H507        H  0.06310517  0.94269819  0.72524652     0.15700
H508        H  0.07771666  0.06288730  0.70678459     0.15500
C509        C  0.00519524  0.50006903  0.77441260     0.45900
H510        H  0.00843678  0.50088374  0.79489332    -0.03200
C511        C  0.99715909  0.99676419  0.72696748     0.45900
H512        H  0.99373722  0.99510721  0.70648654    -0.03200
C513        C  0.46489287  0.96171015  0.76492026    -0.16900
C514        C  0.00475922  0.53834014  0.76368321    -0.16600
C515        C  0.04046292  0.49849001  0.76113765    -0.17000
C516        C  0.46130771  0.95927813  0.73986002    -0.17000
C517        C  0.99894593  0.53579740  0.73857856    -0.16500
C518        C  0.03687517  0.49786761  0.73607883    -0.16800
O519        O  0.24664484  0.60920510  0.97144071    -0.78100
C520        C  0.25913573  0.68462759  0.03844782     0.83000
O521        O  0.35913499  0.76118565  0.97166219    -0.79200
O522        O  0.39415084  0.71922849  0.05132800    -0.80700
O523        O  0.33492996  0.58570317  0.01897346    -0.80500
O524        O  0.29032573  0.58447042  0.96848347    -0.79100
Zn525      Zn  0.28246618  0.66538547  0.98880836     1.55700
O526        O  0.32176147  0.61367004  0.05185563    -0.80500
Cd527      Cd  0.34085206  0.62453955  0.98996148     1.59700
Cd528      Cd  0.38099966  0.72550134  0.98918794     1.59600
O529        O  0.39590914  0.64536976  0.97062036    -0.80500
O530        O  0.33426826  0.67192211  0.00161130    -1.91000
Cd531      Cd  0.33520129  0.67271923  0.03856493     1.59900
O532        O  0.41760615  0.71374502  0.96608014    -0.80500
O533        O  0.28995607  0.68625122  0.05025474    -0.79100
C534        C  0.32226965  0.74966985  0.96387266     0.83400
C535        C  0.25490196  0.58109571  0.96453090     0.83100
O536        O  0.25175932  0.67404572  0.01578614    -0.78100
C537        C  0.32385586  0.58362697  0.04135952     0.83900
O538        O  0.29182704  0.71265015  0.96702809    -0.78200
C539        C  0.42170366  0.68179926  0.96242407     0.84000
C540        C  0.42430762  0.75036113  0.04052086     0.84400
O541        O  0.42224157  0.75814609  0.01778987    -0.80600
C542        C  0.32213758  0.82832314  0.91909546     0.03500
C543        C  0.29197663  0.83560672  0.92984827    -0.12600
C544        C  0.27215567  0.81492011  0.95141767     0.01000
C545        C  0.28179929  0.78622262  0.96211120    -0.11100
C546        C  0.31311963  0.78015170  0.95227296     0.03500
C547        C  0.33383580  0.80185340  0.93113468    -0.10600
H548        H  0.28245214  0.85586370  0.92103891     0.09100
H549        H  0.26580903  0.76954988  0.97860397     0.06700
H550        H  0.35799129  0.79692421  0.92369668     0.06500
O551        O  0.16643465  0.75115491  0.01589374    -0.78100
C552        C  0.07509249  0.75884913  0.96303800     0.83000
O553        O  0.25304926  0.86003069  0.97117934    -0.79200
O554        O  0.14208871  0.90159701  0.97212094    -0.80700
O555        O  0.10874987  0.82144341  0.05104103    -0.80500
O556        O  0.18147116  0.79130306  0.04977286    -0.79100
Zn557      Zn  0.15801094  0.78272440  0.98831831     1.55700
O558        O  0.08059292  0.83565355  0.01850778    -0.80500
Cd559      Cd  0.16681290  0.83593901  0.03755311     1.59700
Cd560      Cd  0.21844679  0.88243364  0.98834984     1.59600
O561        O  0.21131831  0.89599759  0.04966415    -0.80500
O562        O  0.16550367  0.83527442  0.00076398    -1.91000
Cd563      Cd  0.11949425  0.84380928  0.98951652     1.59900
O564        O  0.25043378  0.92485520  0.01647633    -0.80500
O565        O  0.07997656  0.79527119  0.96659688    -0.79100
C566        C  0.24154502  0.82304169  0.96317904     0.83400
C567        C  0.17853289  0.75944909  0.03838273     0.83100
O568        O  0.10158354  0.74879990  0.97069149    -0.78100
C569        C  0.07890632  0.82394047  0.04081223     0.83900
O570        O  0.20488670  0.79209803  0.96630708    -0.78200
C571        C  0.24189460  0.92683256  0.03896126     0.84000
C572        C  0.17775596  0.92631473  0.96295809     0.84400
O573        O  0.20818510  0.91977451  0.96480907    -0.80600
C574        C  0.18961306  0.69085817  0.08621185     0.03500
C575        C  0.21770374  0.68173520  0.07463918    -0.12600
C576        C  0.23144181  0.69621407  0.05095211     0.01000
C577        C  0.21758247  0.72082953  0.03891310    -0.11100
C578        C  0.19145551  0.73234860  0.05097665     0.03500
C579        C  0.17775832  0.71750824  0.07476836    -0.10600
H580        H  0.22740933  0.66173337  0.08366499     0.09100
H581        H  0.22811553  0.73205543  0.02043136     0.06700
H582        H  0.15612382  0.72470439  0.08371714     0.06500
C583        C  0.17400171  0.50413799  0.91874737     0.03500
C584        C  0.16639665  0.96582803  0.92937339    -0.12600
C585        C  0.18568627  0.96569222  0.95159425     0.01000
C586        C  0.21460000  0.50374816  0.96284230    -0.11100
C587        C  0.22238022  0.54199046  0.95289067     0.03500
C588        C  0.20101840  0.54219911  0.93146124    -0.10600
H589        H  0.14713516  0.93586261  0.92017749     0.09100
H590        H  0.23082485  0.50359135  0.97961825     0.06700
H591        H  0.20686765  0.57217567  0.92451713     0.06500
C592        C  0.50355924  0.80783045  0.09259614     0.03500
C593        C  0.46527094  0.78609033  0.07919749    -0.12600
C594        C  0.46422273  0.77660961  0.05404161     0.01000
C595        C  0.50179128  0.79059644  0.04168781    -0.11100
C596        C  0.04011713  0.81112044  0.05449469     0.03500
C597        C  0.04071659  0.81819190  0.08001068    -0.10600
H598        H  0.43593439  0.77746926  0.08770282     0.09100
H599        H  0.50109419  0.78358818  0.02216551     0.06700
H600        H  0.07047901  0.83257914  0.08964866     0.06500
C601        C  0.99760997  0.67593893  0.91836794     0.03500
C602        C  0.03566332  0.70557602  0.92986871    -0.12600
C603        C  0.03594055  0.72706413  0.95117464     0.01000
C604        C  0.99822100  0.71937669  0.96108783    -0.11100
C605        C  0.46007914  0.68900898  0.95054936     0.03500
C606        C  0.45967357  0.66695949  0.92927085    -0.10600
H607        H  0.06521208  0.71357205  0.92171713     0.09100
H608        H  0.99855554  0.73644811  0.97754630     0.06700
H609        H  0.43009399  0.64364126  0.92107098     0.06500
C610        C  0.30261041  0.00235419  0.09121920     0.03500
C611        C  0.27515152  0.96539776  0.07802357    -0.12600
C612        C  0.26788993  0.96645461  0.05283715     0.01000
C613        C  0.28551254  0.00544105  0.04100252    -0.11100
C614        C  0.30949604  0.54335047  0.05436778     0.03500
C615        C  0.31829220  0.54169809  0.07957691    -0.10600
H616        H  0.26121802  0.93517659  0.08708982     0.09100
H617        H  0.27901181  0.00635499  0.02151100     0.06700
H618        H  0.33887328  0.57059021  0.08957250     0.06500
O619        O  0.24857192  0.66503789  0.48127870    -0.78100
C620        C  0.25667512  0.57594715  0.53651454     0.83000
O621        O  0.35823395  0.75235648  0.53134947    -0.79200
O622        O  0.39803096  0.63980455  0.52834920    -0.80700
O623        O  0.31842927  0.60468187  0.44922337    -0.80500
O624        O  0.28799124  0.67820378  0.44809953    -0.79100
Zn625      Zn  0.28009918  0.65754547  0.50971178     1.55700
O626        O  0.32930888  0.57637067  0.48288012    -0.80500
Cd627      Cd  0.33283164  0.66455389  0.46179523     1.59700
Cd628      Cd  0.38004400  0.71825187  0.51220459     1.59600
O629        O  0.39213272  0.71023493  0.45035075    -0.80500
O630        O  0.33261905  0.66485913  0.49874619    -1.91000
Cd631      Cd  0.34015931  0.61836222  0.51104723     1.59900
O632        O  0.41944644  0.75133390  0.48394798    -0.80500
O633        O  0.29301670  0.58114175  0.53424010    -0.79100
C634        C  0.32101963  0.74123253  0.53754818     0.83400
C635        C  0.25641262  0.67592019  0.45875503     0.83100
O636        O  0.24634586  0.60151397  0.52747006    -0.78100
C637        C  0.31877174  0.57412785  0.46021865     0.83900
O638        O  0.29000452  0.70535618  0.53183252    -0.78200
C639        C  0.42181760  0.74225181  0.46151840     0.84000
C640        C  0.42478981  0.67629986  0.53662783     0.84400
O641        O  0.42002926  0.70801892  0.53406675    -0.80600
C642        C  0.32184430  0.81803325  0.58487323     0.03500
C643        C  0.33031940  0.78883831  0.57307722    -0.12600
C644        C  0.31243208  0.77140095  0.55008006     0.01000
C645        C  0.28442972  0.78143138  0.53905048    -0.11100
C646        C  0.27606555  0.81074084  0.55003463     0.03500
C647        C  0.29566848  0.82999934  0.57249861    -0.10600
H648        H  0.34920569  0.77779874  0.58194578     0.09100
H649        H  0.26956383  0.76684925  0.52152373     0.06700
H650        H  0.28945721  0.85328332  0.58037711     0.06500
O651        O  0.10467929  0.73972475  0.52854049    -0.78100
C652        C  0.17564679  0.75018019  0.45946636     0.83000
O653        O  0.25598742  0.85624403  0.53110434    -0.79200
O654        O  0.21196191  0.88736242  0.44937220    -0.80700
O655        O  0.07991456  0.82592540  0.48545798    -0.80500
O656        O  0.08445334  0.78647243  0.53563768    -0.79100
Zn657      Zn  0.16070572  0.77537559  0.51086854     1.55700
O658        O  0.10680705  0.81557888  0.45125473    -0.80500
Cd659      Cd  0.12177207  0.83521581  0.51314763     1.59700
Cd660      Cd  0.22130166  0.87705337  0.51155267     1.59600
O661        O  0.14271349  0.89269968  0.53114302    -0.80500
O662        O  0.16760468  0.82838214  0.49952997    -1.91000
Cd663      Cd  0.16604246  0.82844213  0.46249224     1.59900
O664        O  0.21134648  0.91755787  0.53284507    -0.80500
O665        O  0.17650496  0.78138770  0.44860222    -0.79100
C666        C  0.24539768  0.81898532  0.53783608     0.83400
C667        C  0.07896894  0.74959099  0.53745249     0.83100
O668        O  0.16742525  0.74343280  0.48236906    -0.78100
C669        C  0.07714203  0.81605492  0.46270405     0.83900
O670        O  0.20962731  0.78730819  0.53269018    -0.78200
C671        C  0.17965295  0.92101159  0.53744221     0.84000
C672        C  0.24439945  0.91747733  0.45994150     0.84400
O673        O  0.25363646  0.91580669  0.48252172    -0.80600
C674        C  0.17782848  0.50019757  0.58192394     0.03500
C675        C  0.20668744  0.53806284  0.57037431    -0.12600
C676        C  0.22536933  0.53717388  0.54835537     0.01000
C677        C  0.21638003  0.49856069  0.53806125    -0.11100
C678        C  0.18717275  0.96065723  0.54880399     0.03500
C679        C  0.16712745  0.96145000  0.57035500    -0.10600
H680        H  0.21635677  0.56832107  0.57890345     0.09100
H681        H  0.23189337  0.49801984  0.52134089     0.06700
H682        H  0.14420708  0.93189561  0.57832743     0.06500
C683        C  0.00054110  0.67134594  0.58232986     0.03500
C684        C  0.46303538  0.66381233  0.57074659    -0.12600
C685        C  0.46365921  0.68297304  0.54841442     0.01000
C686        C  0.00196640  0.71041058  0.53764622    -0.11100
C687        C  0.03958863  0.71753747  0.54844727     0.03500
C688        C  0.03880751  0.69752990  0.57057062    -0.10600
H689        H  0.43330265  0.64468044  0.57952987     0.09100
H690        H  0.00252183  0.72631542  0.52070132     0.06700
H691        H  0.06800252  0.70351525  0.57888863     0.06500
C692        C  0.50075063  0.80575201  0.41275396     0.03500
C693        C  0.46234969  0.78077882  0.42433741    -0.12600
C694        C  0.46154767  0.76841295  0.44884687     0.01000
C695        C  0.49938497  0.78098825  0.46156371    -0.11100
C696        C  0.03767271  0.80379419  0.44953909     0.03500
C697        C  0.03802829  0.81525423  0.42504094    -0.10600
H698        H  0.43340907  0.77310965  0.41489892     0.09100
H699        H  0.49894576  0.77168677  0.48058415     0.06700
H700        H  0.06762869  0.83364682  0.41591285     0.06500
C701        C  0.19369389  0.69096024  0.40722013     0.03500
C702        C  0.17811515  0.71320235  0.42065666    -0.12600
C703        C  0.18781258  0.72294231  0.44587420     0.01000
C704        C  0.21176038  0.70867933  0.45817609    -0.11100
C705        C  0.22901297  0.68810077  0.44531782     0.03500
C706        C  0.22118320  0.68083976  0.41983307    -0.10600
H707        H  0.15748315  0.72230266  0.41211923     0.09100
H708        H  0.21912407  0.71586806  0.47765647     0.06700
H709        H  0.23644104  0.66672128  0.41024259     0.06500
C710        C  0.30603872  0.99659313  0.40974179     0.03500
C711        C  0.31516094  0.53420660  0.42200131    -0.12600
C712        C  0.30556122  0.53417344  0.44680710     0.01000
C713        C  0.28372979  0.99565221  0.45908156    -0.11100
C714        C  0.27055190  0.95727427  0.44661307     0.03500
C715        C  0.28208185  0.95786126  0.42191933    -0.10600
H716        H  0.33160903  0.56404853  0.41259116     0.09100
H717        H  0.27548095  0.99544972  0.47823204     0.06700
H718        H  0.27414410  0.92847530  0.41278640     0.06500
C719        C  0.49280194  0.49000065  0.22601973     0.45900
H720        H  0.48840611  0.48316184  0.20586805    -0.03200
C721        C  0.00265382  0.50592911  0.27287429     0.45900
H722        H  0.00674278  0.01270274  0.29304966    -0.03200
C723        C  0.03289105  0.53160316  0.23279881    -0.16900
C724        C  0.45689295  0.99311979  0.23752199    -0.16600
C725        C  0.49582390  0.95638165  0.24077916    -0.17000
C726        C  0.03781158  0.54004242  0.25767214    -0.17000
C727        C  0.46240377  0.00207755  0.26223685    -0.16500
C728        C  0.50110031  0.96470128  0.26559852    -0.16800
C729        C  0.42572553  0.57076468  0.35485290    -0.17400
C730        C  0.44661729  0.57297895  0.33322931    -0.19600
C731        C  0.42797432  0.54060376  0.31552192     0.21100
C732        C  0.38733427  0.00644288  0.31907415    -0.02500
C733        C  0.36602118  0.00446525  0.34081645    -0.05600
C734        C  0.38574795  0.53638630  0.35890976     0.21300
C735        C  0.32575260  0.96985473  0.34487124     0.19500
C736        C  0.30695010  0.93787564  0.32681764    -0.17100
C737        C  0.32840010  0.93949123  0.30536370    -0.19300
C738        C  0.36884256  0.97332738  0.30148533     0.21000
C739        C  0.39216145  0.97357942  0.28118635    -0.32300
C740        C  0.43349067  0.00652749  0.27858459     0.01700
C741        C  0.45039048  0.54066366  0.29509284    -0.23600
C742        C  0.36576478  0.53309790  0.38108086    -0.28200
C743        C  0.32547884  0.99903088  0.38545213     0.07400
C744        C  0.30549607  0.96752498  0.36710071    -0.26900
H745        H  0.44110122  0.59564298  0.36858702     0.12100
H746        H  0.47784955  0.59937590  0.33069088     0.13200
H747        H  0.27602285  0.91112308  0.32954830     0.12300
H748        H  0.31368844  0.91385081  0.29204852     0.11500
H749        H  0.37939942  0.94690458  0.26853737     0.16900
H750        H  0.48229944  0.56598987  0.29295212     0.12800
H751        H  0.38241988  0.55684919  0.39525611     0.15700
H752        H  0.27444776  0.94117798  0.37013002     0.15500
C753        C  0.09526161  0.66784856  0.30860393    -0.17400
C754        C  0.11705921  0.68871200  0.33025889    -0.19600
C755        C  0.14105692  0.67511188  0.34324767     0.21100
C756        C  0.14501482  0.64178305  0.33350392    -0.02500
C757        C  0.12444855  0.62186258  0.31109870    -0.05600
C758        C  0.09809652  0.63385047  0.29915007     0.21300
C759        C  0.12808197  0.58813612  0.30154535     0.19500
C760        C  0.15284939  0.57520964  0.31416638    -0.17100
C761        C  0.17210890  0.59408669  0.33671576    -0.19300
C762        C  0.16771885  0.62686764  0.34674881     0.21000
C763        C  0.18397367  0.64344799  0.37031550    -0.32300
C764        C  0.17979290  0.67644119  0.38078834     0.01700
C765        C  0.15963614  0.69312993  0.36626234    -0.23600
C766        C  0.07270880  0.60956801  0.27918363    -0.28200
C767        C  0.07453454  0.57450332  0.27059548     0.07400
C768        C  0.10421808  0.56572961  0.28072477    -0.26900
H769        H  0.07537450  0.67764430  0.29959186     0.12100
H770        H  0.11370284  0.71435492  0.33740843     0.13200
H771        H  0.15579320  0.54922896  0.30716842     0.12300
H772        H  0.18971743  0.58240259  0.34658064     0.11500
H773        H  0.19812257  0.62872294  0.38064224     0.16900
H774        H  0.15708495  0.71944939  0.37284098     0.12800
H775        H  0.04932364  0.61591617  0.27155337     0.15700
H776        H  0.10522758  0.53839803  0.27414137     0.15500
C777        C  0.44976189  0.80612939  0.32795578    -0.17400
C778        C  0.45056186  0.82839610  0.30688088    -0.19600
C779        C  0.47896030  0.87176553  0.30540402     0.21100
C780        C  0.50735025  0.89275995  0.32513146    -0.02500
C781        C  0.50638791  0.87046414  0.34635238    -0.05600
C782        C  0.47722495  0.82696169  0.34788216     0.21300
C783        C  0.03390971  0.89200960  0.36630271     0.19500
C784        C  0.06251255  0.93526500  0.36484223    -0.17100
C785        C  0.06351109  0.95734121  0.34378773    -0.19300
C786        C  0.03581775  0.93639306  0.32402788     0.21000
C787        C  0.03505716  0.95876925  0.30360334    -0.32300
C788        C  0.50595799  0.93858151  0.28436393     0.01700
C789        C  0.47842224  0.89492009  0.28505654    -0.23600
C790        C  0.47567040  0.80536293  0.36948272    -0.28200
C791        C  0.50292431  0.82694314  0.38938054     0.07400
C792        C  0.03186799  0.87015558  0.38762505    -0.26900
H793        H  0.42726751  0.77275404  0.32881830     0.12100
H794        H  0.42859093  0.81182969  0.29188803     0.13200
H795        H  0.08378120  0.95208348  0.38008466     0.12300
H796        H  0.08544171  0.99090037  0.34311620     0.11500
H797        H  0.05605610  0.99238111  0.30326228     0.16900
H798        H  0.45507678  0.87943943  0.27058778     0.12800
H799        H  0.45331613  0.77200386  0.37089080     0.15700
H800        H  0.05221850  0.88711668  0.40320484     0.15500
C801        C  0.35525674  0.55258141  0.17692388    -0.17400
C802        C  0.37565208  0.55023660  0.19830857    -0.19600
C803        C  0.38525247  0.51807993  0.20087552     0.21100
C804        C  0.37242482  0.98690446  0.18221136    -0.02500
C805        C  0.35263645  0.98971239  0.16054167    -0.05600
C806        C  0.34460164  0.52311596  0.15763347     0.21300
C807        C  0.34286516  0.96021852  0.14128641     0.19500
C808        C  0.35085577  0.92707339  0.14414797    -0.17100
C809        C  0.36986647  0.92392966  0.16571644    -0.19300
C810        C  0.38159483  0.95421651  0.18452161     0.21000
C811        C  0.40505188  0.95404552  0.20472046    -0.32300
C812        C  0.42138230  0.98712956  0.22200161     0.01700
C813        C  0.40989784  0.51805855  0.22079790    -0.23600
C814        C  0.32723449  0.52702669  0.13522649    -0.28200
C815        C  0.31852490  0.99820224  0.11572428     0.07400
C816        C  0.32658714  0.96503071  0.11908284    -0.26900
H817        H  0.34901898  0.57821841  0.17514606     0.12100
H818        H  0.38495611  0.57424890  0.21252593     0.13200
H819        H  0.34320199  0.90408622  0.12948257     0.12300
H820        H  0.37681987  0.89873875  0.16729856     0.11500
H821        H  0.41365934  0.92998788  0.20590137     0.16900
H822        H  0.42283340  0.54379303  0.23410864     0.12800
H823        H  0.32103972  0.55260621  0.13285770     0.15700
H824        H  0.32148309  0.94340435  0.10401835     0.15500
C825        C  0.07837089  0.90758760  0.16225480    -0.17400
C826        C  0.07760410  0.92633821  0.18458197    -0.19600
C827        C  0.03997751  0.91180145  0.19705929     0.21100
C828        C  0.50314223  0.87684380  0.18755170    -0.02500
C829        C  0.50428497  0.85698920  0.16547961    -0.05600
C830        C  0.04173608  0.87330503  0.15237671     0.21300
C831        C  0.46755815  0.82212880  0.15594486     0.19500
C832        C  0.42999869  0.80722219  0.16863211    -0.17100
C833        C  0.42844773  0.82811797  0.18986749    -0.19300
C834        C  0.46471804  0.86335817  0.19924337     0.21000
C835        C  0.46286148  0.88719533  0.21894134    -0.32300
C836        C  0.49919560  0.92313224  0.22761732     0.01700
C837        C  0.03791548  0.93361190  0.21773450    -0.23600
C838        C  0.04158133  0.85651799  0.12907050    -0.28200
C839        C  0.50483877  0.82208787  0.11888215     0.09800
C840        C  0.46851656  0.80387989  0.13336235    -0.26900
H841        H  0.10749336  0.92041987  0.15247507     0.12100
H842        H  0.10608187  0.95336343  0.19152805     0.13200
H843        H  0.40143590  0.78047123  0.16154651     0.12300
H844        H  0.39873231  0.81723021  0.19866818     0.11500
H845        H  0.43291471  0.87959692  0.22637408     0.16900
H846        H  0.06577402  0.96174079  0.22435448     0.12800
H847        H  0.06997010  0.87206373  0.11864023     0.15700
H848        H  0.44025060  0.77622596  0.12696564     0.15500
C849        C  0.12177325  0.66782438  0.19211815    -0.17400
C850        C  0.14283063  0.69006787  0.17114592    -0.19600
C851        C  0.14646618  0.66876765  0.15067567     0.21100
C852        C  0.12948989  0.62474531  0.15149370    -0.02500
C853        C  0.10858512  0.60245847  0.17263804    -0.05600
C854        C  0.10422974  0.62400211  0.19294822     0.21300
C855        C  0.09100733  0.55844102  0.17316043     0.19500
C856        C  0.09480051  0.53699966  0.15283179    -0.17100
C857        C  0.11544269  0.55907862  0.13182886    -0.19300
C858        C  0.13265410  0.60282708  0.13099274     0.21000
C859        C  0.15258466  0.62498061  0.10987996    -0.32300
C860        C  0.16951446  0.66873419  0.10894821     0.01700
C861        C  0.16637020  0.69055403  0.12929925    -0.23600
C862        C  0.08109826  0.60111355  0.21330449    -0.28200
C863        C  0.06267015  0.55713768  0.21355364     0.07400
C864        C  0.06863102  0.53632114  0.19366058    -0.26900
H865        H  0.11877127  0.68482301  0.20757088     0.12100
H866        H  0.15582457  0.72385769  0.17081616     0.13200
H867        H  0.08129874  0.50311773  0.15305400     0.12300
H868        H  0.11769192  0.54193702  0.11618764     0.11500
H869        H  0.15438465  0.60809029  0.09393662     0.16900
H870        H  0.17953352  0.72435982  0.12847003     0.12800
H871        H  0.07562393  0.61728653  0.22819131     0.15700
H872        H  0.05448695  0.50252232  0.19356884     0.15500
C873        C  0.37587625  0.81742183  0.83816433    -0.17400
C874        C  0.39437304  0.83516116  0.81568641    -0.19600
C875        C  0.40180491  0.87521287  0.80923641     0.21100
C876        C  0.38958362  0.89720619  0.82537659    -0.02500
C877        C  0.37182480  0.87973905  0.84823277    -0.05600
C878        C  0.36516799  0.83977320  0.85468272     0.21300
C879        C  0.36190366  0.90282473  0.86490987     0.19500
C880        C  0.36837390  0.94245538  0.85825804    -0.17100
C881        C  0.38558318  0.95963599  0.83548564    -0.19300
C882        C  0.39684835  0.93751842  0.81918211     0.21000
C883        C  0.41757635  0.95612106  0.79747726    -0.32300
C884        C  0.43226901  0.93562983  0.78232547     0.01700
C885        C  0.42332482  0.89474934  0.78767868    -0.23600
C886        C  0.34849211  0.82309497  0.87768769    -0.28200
C887        C  0.33964682  0.84638881  0.89474134     0.07400
C888        C  0.34643739  0.88626842  0.88813625    -0.26900
H889        H  0.37083390  0.78661891  0.84288388     0.12100
H890        H  0.40349627  0.81786363  0.80353983     0.13200
H891        H  0.36068729  0.96042192  0.87081590     0.12300
H892        H  0.39115566  0.99069652  0.83091129     0.11500
H893        H  0.42515880  0.98799217  0.79325596     0.16900
H894        H  0.43557455  0.87957261  0.77607450     0.12800
H895        H  0.34226931  0.79180955  0.88221547     0.15700
H896        H  0.34034239  0.90482886  0.90117214     0.15500
C897        C  0.44360002  0.62731187  0.83306384    -0.17400
C898        C  0.44628658  0.61091986  0.81022229    -0.19600
C899        C  0.47845383  0.60233029  0.80591344     0.21100
C900        C  0.00865381  0.61116484  0.82471862    -0.02500
C901        C  0.00517255  0.62636507  0.84794523    -0.05600
C902        C  0.47251806  0.63454322  0.85215890     0.21300
C903        C  0.03393684  0.63255511  0.86708829     0.19500
C904        C  0.06651945  0.62466028  0.86275363    -0.17100
C905        C  0.07047930  0.61043102  0.83962202    -0.19300
C906        C  0.04147742  0.60323984  0.82065934     0.21000
C907        C  0.04318012  0.58552317  0.79827944    -0.32300
C908        C  0.01095006  0.57251294  0.78058973     0.01700
C909        C  0.47957079  0.58259571  0.78386370    -0.23600
C910        C  0.46950274  0.64988754  0.87535651    -0.28200
C911        C  0.99826088  0.65629187  0.89450907     0.07400
C912        C  0.02977576  0.64661207  0.89026550    -0.26900
H913        H  0.41840295  0.63355954  0.83595649     0.12100
H914        H  0.42288891  0.60444750  0.79604319     0.13200
H915        H  0.08887555  0.62938358  0.87727685     0.12300
H916        H  0.09557362  0.60398943  0.83675337     0.11500
H917        H  0.06733196  0.57767052  0.79567641     0.16900
H918        H  0.45434974  0.57194668  0.77036255     0.12800
H919        H  0.44537345  0.65769371  0.87829120     0.15700
H920        H  0.05148809  0.65040941  0.90499507     0.15500
C921        C  0.17664325  0.57414472  0.83962383    -0.17400
C922        C  0.16022847  0.57247583  0.81595356    -0.19600
C923        C  0.12678285  0.53464095  0.80662739     0.21100
C924        C  0.10981242  0.49815131  0.82127771    -0.02500
C925        C  0.12522134  0.50031853  0.84544401    -0.05600
C926        C  0.15910553  0.53828368  0.85457635     0.21300
C927        C  0.10592029  0.96468920  0.86065463     0.19500
C928        C  0.07253998  0.92679939  0.85140791    -0.17100
C929        C  0.05797047  0.92428185  0.82725839    -0.19300
C930        C  0.07597262  0.95988963  0.81223661     0.21000
C931        C  0.05835775  0.95880655  0.78917500    -0.32300
C932        C  0.07233364  0.49589783  0.77580509     0.01700
C933        C  0.10782755  0.53323546  0.78378772    -0.23600
C934        C  0.17495194  0.53961787  0.87842977    -0.28200
C935        C  0.15579913  0.50410844  0.89392044     0.07400
C936        C  0.12013307  0.96739193  0.88492704    -0.26900
H937        H  0.20253159  0.60367927  0.84641421     0.12100
H938        H  0.17338722  0.60085166  0.80505339     0.13200
H939        H  0.05761175  0.89911830  0.86288646     0.12300
H940        H  0.03172703  0.89486617  0.82060342     0.11500
H941        H  0.03016901  0.93042826  0.78312653     0.16900
H942        H  0.11775117  0.56197351  0.77356934     0.12800
H943        H  0.20269538  0.56818850  0.88444740     0.15700
H944        H  0.10310959  0.94038202  0.89661480     0.15500
C945        C  0.33503913  0.89859844  0.68842026    -0.17400
C946        C  0.31683535  0.88068413  0.66546117    -0.19600
C947        C  0.33524655  0.86402070  0.65006280     0.21100
C948        C  0.37124651  0.86375874  0.65833068    -0.02500
C949        C  0.38869570  0.88035921  0.68181060    -0.05600
C950        C  0.37132394  0.89916008  0.69660528     0.21300
C951        C  0.42509716  0.88051985  0.68979256     0.19500
C952        C  0.44312682  0.86326750  0.67466352    -0.17100
C953        C  0.42638623  0.84777251  0.65119272    -0.19300
C954        C  0.39092868  0.84856991  0.64274157     0.21000
C955        C  0.37557507  0.83537924  0.61872015    -0.32300
C956        C  0.33906242  0.83447012  0.61023249     0.01700
C957        C  0.31874105  0.84831951  0.62639430    -0.23600
C958        C  0.39245645  0.92095880  0.71828285    -0.28200
C959        C  0.43019183  0.92349279  0.72512137     0.07400
C960        C  0.44492584  0.90116643  0.71176661    -0.26900
H961        H  0.32125729  0.91280972  0.69952858     0.12100
H962        H  0.28911067  0.88108275  0.65941085     0.13200
H963        H  0.47116431  0.86334219  0.68057370     0.12300
H964        H  0.44158996  0.83579675  0.63948280     0.11500
H965        H  0.39292681  0.82657879  0.60663651     0.16900
H966        H  0.29002946  0.84698145  0.62078176     0.12800
H967        H  0.38178193  0.93904642  0.72848728     0.15700
H968        H  0.47460645  0.90409633  0.71700132     0.15500
C969        C  0.06233032  0.68098123  0.66575192    -0.17400
C970        C  0.06105292  0.66335743  0.68883910    -0.19600
C971        C  0.02673280  0.62435556  0.69515420     0.21100
C972        C  0.99300917  0.60334826  0.67816720    -0.02500
C973        C  0.99490414  0.62046610  0.65465574    -0.05600
C974        C  0.02972532  0.65945808  0.64839577     0.21300
C975        C  0.46245819  0.59792873  0.63719018     0.19500
C976        C  0.42781545  0.55923788  0.64356170    -0.17100
C977        C  0.42556372  0.54261757  0.66697742    -0.19300
C978        C  0.45820732  0.56419591  0.68421340     0.21000
C979        C  0.45798612  0.54575532  0.70667565    -0.32300
C980        C  0.99305364  0.56443165  0.72248332     0.01700
C981        C  0.02665625  0.60453887  0.71732632    -0.23600
C982        C  0.03146085  0.67600977  0.62483292    -0.28200
C983        C  0.99943809  0.65341851  0.60713081     0.07400
C984        C  0.46532716  0.61411734  0.61352534    -0.26900
H985        H  0.08929508  0.71100523  0.66125047     0.12100
H986        H  0.08719493  0.67992233  0.70159973     0.13200
H987        H  0.40262037  0.54164492  0.63035219     0.12300
H988        H  0.39885828  0.51230100  0.67135944     0.11500
H989        H  0.43239928  0.51448208  0.71066172     0.16900
H990        H  0.05405815  0.61837971  0.72934232     0.12800
H991        H  0.05757866  0.70667202  0.62044944     0.15700
H992        H  0.44093030  0.59574754  0.60002801     0.15500
C993        C  0.10313748  0.43710728  0.68573041    -0.17400
C994        C  0.12153509  0.43690725  0.66337441    -0.19600
C995        C  0.13357380  0.46997094  0.64660896     0.21100
C996        C  0.12817499  0.50415028  0.65271928    -0.02500
C997        C  0.11051107  0.50482774  0.67545172    -0.05600
C998        C  0.09711936  0.47071566  0.69185473     0.21300
C999        C  0.10461912  0.53882788  0.68127164     0.19500
C1000       C  0.11709048  0.57214119  0.66473148    -0.17100
C1001       C  0.13413739  0.57119963  0.64210565    -0.19300
C1002       C  0.13927570  0.53710675  0.63582152     0.21000
C1003       C  0.15453694  0.53509872  0.61270654    -0.32300
C1004       C  0.16038894  0.50131459  0.60636737     0.01700
C1005       C  0.15035473  0.46916797  0.62370896    -0.23600
C1006       C  0.07603496  0.46993275  0.71337766    -0.28200
C1007       C  0.06857487  0.50291719  0.71840184     0.07400
C1008       C  0.08417862  0.53781441  0.70287154    -0.26900
H1009       H  0.09306832  0.41069718  0.69805885     0.12100
H1010       H  0.12551286  0.41042301  0.65895506     0.13200
H1011       H  0.11262092  0.59837708  0.66901376     0.12300
H1012       H  0.14277115  0.59686067  0.62937376     0.11500
H1013       H  0.16106832  0.05966509  0.59951573     0.16900
H1014       H  0.15567563  0.44347967  0.61953452     0.12800
H1015       H  0.06308864  0.44268367  0.72525221     0.15700
H1016       H  0.07774956  0.56289687  0.70680104     0.15500
C1017       C  0.50517535  0.00002157  0.77440754     0.45900
H1018       H  0.50841287  0.00081908  0.79488811    -0.03200
C1019       C  0.49717214  0.49677270  0.72697238     0.45900
H1020       H  0.49374774  0.49510036  0.70649151    -0.03200
C1021       C  0.96490724  0.46175365  0.76493354    -0.16900
C1022       C  0.50473604  0.03830003  0.76369141    -0.16600
C1023       C  0.54044675  0.99845729  0.76112802    -0.17000
C1024       C  0.96132056  0.45929921  0.73987327    -0.17000
C1025       C  0.49892561  0.03577667  0.73858634    -0.16500
C1026       C  0.53686438  0.99785884  0.73606942    -0.16800
O1027       O  0.74664651  0.10920502  0.97142765    -0.78100
C1028       C  0.75915761  0.18463980  0.03843493     0.83000
O1029       O  0.85914685  0.26118909  0.97165510    -0.79200
O1030       O  0.89415665  0.21920244  0.05132169    -0.80700
O1031       O  0.83489335  0.08567340  0.01896599    -0.80500
O1032       O  0.79032725  0.08447115  0.96846300    -0.79100
Zn1033     Zn  0.78247480  0.16538672  0.98879470     1.55700
O1034       O  0.82174662  0.11365371  0.05184962    -0.80500
Cd1035     Cd  0.84084623  0.12452552  0.98995306     1.59700
Cd1036     Cd  0.88100891  0.22549886  0.98918328     1.59600
O1037       O  0.89591785  0.14536114  0.97062515    -0.80500
O1038       O  0.83427273  0.17191504  0.00160070    -1.91000
Cd1039     Cd  0.83520602  0.17270639  0.03855412     1.59900
O1040       O  0.91761581  0.21373680  0.96607958    -0.80500
O1041       O  0.78997546  0.18625579  0.05024009    -0.79100
C1042       C  0.82228312  0.24967333  0.96386110     0.83400
C1043       C  0.75490259  0.08109682  0.96451330     0.83100
O1044       O  0.75177492  0.17405759  0.01577334    -0.78100
C1045       C  0.82382562  0.08360224  0.04135344     0.83900
O1046       O  0.79184125  0.21265145  0.96701189    -0.78200
C1047       C  0.92171544  0.18179078  0.96242942     0.84000
C1048       C  0.92431585  0.25033949  0.04051934     0.84400
O1049       O  0.92225204  0.25813604  0.01778981    -0.80600
C1050       C  0.82212183  0.32832868  0.91909338     0.03500
C1051       C  0.79197112  0.33561407  0.92985705    -0.12600
C1052       C  0.77216382  0.31492639  0.95142847     0.01000
C1053       C  0.78181561  0.28623024  0.96211575    -0.11100
C1054       C  0.81312909  0.28015793  0.95226699     0.03500
C1055       C  0.83382680  0.30185575  0.93112303    -0.10600
H1056       H  0.78244333  0.35587315  0.92105356     0.09100
H1057       H  0.76583565  0.26955782  0.97861087     0.06700
H1058       H  0.85797261  0.29692248  0.92367320     0.06500
O1059       O  0.66644685  0.25116450  0.01590911    -0.78100
C1060       C  0.57510758  0.25884967  0.96304911     0.83000
O1061       O  0.75305909  0.36003562  0.97119144    -0.79200
O1062       O  0.64210036  0.40160431  0.97213559    -0.80700
O1063       O  0.60877205  0.32144794  0.05105228    -0.80500
O1064       O  0.68151069  0.29132819  0.04978343    -0.79100
Zn1065     Zn  0.65802330  0.28273058  0.98833402     1.55700
O1066       O  0.58060216  0.33563908  0.01851740    -0.80500
Cd1067     Cd  0.66684055  0.33595726  0.03756454     1.59700
Cd1068     Cd  0.71845768  0.38244273  0.98835627     1.59600
O1069       O  0.71134868  0.39602086  0.04967085    -0.80500
O1070       O  0.66552002  0.33528386  0.00077557    -1.91000
Cd1071     Cd  0.61950733  0.34381130  0.98952634     1.59900
O1072       O  0.75044876  0.42487803  0.01647760    -0.80500
O1073       O  0.57999301  0.29527351  0.96660339    -0.79100
C1074       C  0.74155587  0.32304492  0.96319500     0.83400
C1075       C  0.67856177  0.25946812  0.03839483     0.83100
O1076       O  0.60159690  0.24880159  0.97070735    -0.78100
C1077       C  0.57891953  0.32392806  0.04082196     0.83900
O1078       O  0.70489906  0.29210047  0.96632549    -0.78200
C1079       C  0.74191943  0.42685679  0.03896451     0.84000
C1080       C  0.67776228  0.42631414  0.96296372     0.84400
O1081       O  0.70818727  0.41976614  0.96480572    -0.80600
C1082       C  0.68967328  0.19088605  0.08621634     0.03500
C1083       C  0.71775179  0.18175737  0.07463451    -0.12600
C1084       C  0.73147235  0.19623036  0.05094459     0.01000
C1085       C  0.71760849  0.22084652  0.03891159    -0.11100
C1086       C  0.69149341  0.23237165  0.05098433     0.03500
C1087       C  0.67781332  0.21753679  0.07477904    -0.10600
H1088       H  0.72746157  0.16175545  0.08365604     0.09100
H1089       H  0.72812868  0.23206794  0.02042750     0.06700
H1090       H  0.65618679  0.22473657  0.08373489     0.06500
C1091       C  0.67397022  0.00412704  0.91874392     0.03500
C1092       C  0.66642508  0.46583598  0.92937425    -0.12600
C1093       C  0.68569474  0.46569381  0.95160191     0.01000
C1094       C  0.71460371  0.00374932  0.96282682    -0.11100
C1095       C  0.72237637  0.04198940  0.95287569     0.03500
C1096       C  0.70099691  0.04219214  0.93145262    -0.10600
H1097       H  0.64717377  0.43587400  0.92017234     0.09100
H1098       H  0.73084086  0.00359625  0.97959809     0.06700
H1099       H  0.70684125  0.07216713  0.92450890     0.06500
C1100       C  0.00355876  0.30777465  0.09260501     0.03500
C1101       C  0.96527242  0.28604066  0.07920409    -0.12600
C1102       C  0.96422926  0.27657918  0.05404487     0.01000
C1103       C  0.00180131  0.29057656  0.04169253    -0.11100
C1104       C  0.54012507  0.31109189  0.05450282     0.03500
C1105       C  0.54071826  0.31814300  0.08002053    -0.10600
H1106       H  0.93593499  0.27741232  0.08771104     0.09100
H1107       H  0.00110842  0.28358381  0.02216819     0.06700
H1108       H  0.57047829  0.33252336  0.08966113     0.06500
C1109       C  0.49762892  0.17592926  0.91838147     0.03500
C1110       C  0.53568145  0.20556831  0.92988206    -0.12600
C1111       C  0.53595647  0.22706104  0.95118580     0.01000
C1112       C  0.49823506  0.21937222  0.96109752    -0.11100
C1113       C  0.96009434  0.18900000  0.95055956     0.03500
C1114       C  0.95969172  0.16694876  0.92928304    -0.10600
H1115       H  0.56523032  0.21356183  0.92173152     0.09100
H1116       H  0.49856727  0.23644637  0.97755409     0.06700
H1117       H  0.93011315  0.14362897  0.92108273     0.06500
C1118       C  0.80264570  0.50238017  0.09122128     0.03500
C1119       C  0.77518282  0.46542393  0.07802620    -0.12600
C1120       C  0.76792080  0.46647996  0.05283955     0.01000
C1121       C  0.78554818  0.50546672  0.04100489    -0.11100
C1122       C  0.80946017  0.04332538  0.05436446     0.03500
C1123       C  0.81825574  0.04167273  0.07957430    -0.10600
H1124       H  0.76124734  0.43520324  0.08709309     0.09100
H1125       H  0.77904821  0.50638186  0.02151338     0.06700
H1126       H  0.83883566  0.07056495  0.08957009     0.06500
O1127       O  0.74858593  0.16504554  0.48128312    -0.78100
C1128       C  0.75668758  0.07595497  0.53651421     0.83000
O1129       O  0.85825550  0.25235906  0.53136422    -0.79200
O1130       O  0.89803626  0.13978913  0.52834643    -0.80700
O1131       O  0.81842563  0.10469155  0.44922228    -0.80500
O1132       O  0.78800691  0.17821830  0.44810430    -0.79100
Zn1133     Zn  0.78011428  0.15755601  0.50971693     1.55700
O1134       O  0.82930619  0.07636712  0.48287209    -0.80500
Cd1135     Cd  0.83283951  0.16456097  0.46180081     1.59700
Cd1136     Cd  0.88005837  0.21824838  0.51221523     1.59600
O1137       O  0.89214203  0.21023047  0.45035876    -0.80500
O1138       O  0.83263026  0.16486249  0.49875145    -1.91000
Cd1139     Cd  0.84016691  0.11835834  0.51104311     1.59900
O1140       O  0.91946454  0.25132349  0.48395793    -0.80500
O1141       O  0.79302550  0.08114239  0.53423538    -0.79100
C1142       C  0.82104081  0.24123896  0.53756065     0.83400
C1143       C  0.75642641  0.17592966  0.45875963     0.83100
O1144       O  0.74636157  0.10152711  0.52747460    -0.78100
C1145       C  0.81876511  0.07413205  0.46021176     0.83900
O1146       O  0.79002382  0.20536713  0.53183920    -0.78200
C1147       C  0.92183207  0.24224066  0.46152770     0.84000
C1148       C  0.92479385  0.17627939  0.53663250     0.84400
O1149       O  0.92003508  0.20800083  0.53407769    -0.80600
C1150       C  0.82185308  0.31802088  0.58489792     0.03500
C1151       C  0.83033724  0.28883600  0.57309625    -0.12600
C1152       C  0.81245360  0.27140549  0.55009679     0.01000
C1153       C  0.78444705  0.28143361  0.53907064    -0.11100
C1154       C  0.77607440  0.31073352  0.55005971     0.03500
C1155       C  0.79567345  0.32998536  0.57252584    -0.10600
H1156       H  0.84922643  0.27779764  0.58196223     0.09100
H1157       H  0.76958357  0.26685637  0.52154250     0.06700
H1158       H  0.78945626  0.35326302  0.58040767     0.06500
O1159       O  0.60468764  0.23970979  0.52855239    -0.78100
C1160       C  0.67566104  0.25018274  0.45948034     0.83000
O1161       O  0.75598931  0.35623741  0.53113700    -0.79200
O1162       O  0.71198263  0.38736201  0.44940012    -0.80700
O1163       O  0.57991880  0.32589648  0.48547170    -0.80500
O1164       O  0.58445712  0.28645310  0.53565322    -0.79100
Zn1165     Zn  0.66071749  0.27536591  0.51088541     1.55700
O1166       O  0.60682799  0.31557460  0.45126857    -0.80500
Cd1167     Cd  0.62177489  0.33519782  0.51316340     1.59700
Cd1168     Cd  0.72130688  0.37704443  0.51157891     1.59600
O1169       O  0.64270764  0.39268674  0.53115050    -0.80500
O1170       O  0.66761462  0.32837261  0.49955046    -1.91000
Cd1171     Cd  0.66605989  0.32844176  0.46251338     1.59900
O1172       O  0.71134091  0.41754746  0.53286374    -0.80500
O1173       O  0.67652405  0.28139440  0.44861939    -0.79100
C1174       C  0.74540432  0.31897674  0.53786211     0.83400
C1175       C  0.57897370  0.24957138  0.53746407     0.83100
O1176       O  0.66743744  0.24342960  0.48238253    -0.78100
C1177       C  0.57715500  0.31603600  0.46271674     0.83900
O1178       O  0.70963889  0.28729756  0.53270856    -0.78200
C1179       C  0.67964488  0.42100120  0.53745204     0.84000
C1180       C  0.74441995  0.41747402  0.45997103     0.84400
O1181       O  0.75365314  0.41580185  0.48255176    -0.80600
C1182       C  0.67782808  0.00020539  0.58191563     0.03500
C1183       C  0.70668914  0.03807083  0.57036798    -0.12600
C1184       C  0.72538097  0.03718242  0.54835342     0.01000
C1185       C  0.71639749  0.99857056  0.53806047    -0.11100
C1186       C  0.68716016  0.46064824  0.54880838     0.03500
C1187       C  0.66712284  0.46144221  0.57036223    -0.10600
H1188       H  0.71635304  0.06832869  0.57889603     0.09100
H1189       H  0.73191640  0.99803157  0.52134216     0.06700
H1190       H  0.64420545  0.43188796  0.57833613     0.06500
C1191       C  0.50054070  0.17129664  0.58232746     0.03500
C1192       C  0.96303535  0.16376776  0.57074525    -0.12600
C1193       C  0.96366156  0.18294523  0.54841870     0.01000
C1194       C  0.50197044  0.21039272  0.53765541    -0.11100
C1195       C  0.53959144  0.21751202  0.54845419     0.03500
C1196       C  0.53880780  0.19748751  0.57057079    -0.10600
H1197       H  0.93330171  0.14462881  0.57952605     0.09100
H1198       H  0.50252806  0.22631003  0.52071541     0.06700
H1199       H  0.56800224  0.20346752  0.57888692     0.06500
C1200       C  0.00076746  0.30572037  0.41276188     0.03500
C1201       C  0.96236603  0.28075104  0.42434453    -0.12600
C1202       C  0.96156261  0.26839260  0.44885571     0.01000
C1203       C  0.99939857  0.28096605  0.46157331    -0.11100
C1204       C  0.53768708  0.30377031  0.44954936     0.03500
C1205       C  0.53804463  0.31522808  0.42505058    -0.10600
H1206       H  0.93342693  0.27308150  0.41490380     0.09100
H1207       H  0.99895778  0.27166750  0.48059456     0.06700
H1208       H  0.56764527  0.33362528  0.41592335     0.06500
C1209       C  0.69370604  0.19097466  0.40722688     0.03500
C1210       C  0.67812749  0.21321366  0.42066678    -0.12600
C1211       C  0.68782442  0.22294724  0.44588483     0.01000
C1212       C  0.71177195  0.20868279  0.45818413    -0.11100
C1213       C  0.72902530  0.18810846  0.44532330     0.03500
C1214       C  0.72119549  0.18085178  0.41983804    -0.10600
H1215       H  0.65749625  0.22231708  0.41213188     0.09100
H1216       H  0.71913579  0.21586828  0.47766478     0.06700
H1217       H  0.73645382  0.16673537  0.41024608     0.06500
C1218       C  0.80606360  0.49656830  0.40976539     0.03500
C1219       C  0.81514425  0.03422659  0.42198605    -0.12600
C1220       C  0.80554744  0.03418234  0.44679315     0.01000
C1221       C  0.78374742  0.49564906  0.45910217    -0.11100
C1222       C  0.77057718  0.45726692  0.44664127     0.03500
C1223       C  0.78211277  0.45784321  0.42195038    -0.10600
H1224       H  0.83160091  0.06407325  0.41258118     0.09100
H1225       H  0.77549409  0.49545368  0.47825105     0.06700
H1226       H  0.77417980  0.42845269  0.41282532     0.06500
C1227       C  0.99282157  0.99005589  0.22601313     0.45900
H1228       H  0.98842692  0.98321690  0.20586145    -0.03200
C1229       C  0.50267146  0.00598428  0.27286790     0.45900
H1230       H  0.50672318  0.51265094  0.29305564    -0.03200
C1231       C  0.53291518  0.03165356  0.23279367    -0.16900
C1232       C  0.95687183  0.49305872  0.23753015    -0.16600
C1233       C  0.99581221  0.45632939  0.24078484    -0.17000
C1234       C  0.53783421  0.04009295  0.25766700    -0.17000
C1235       C  0.96238157  0.50201219  0.26224486    -0.16500
C1236       C  0.00109285  0.46465022  0.26560471    -0.16800
C1237       C  0.92576060  0.07077743  0.35487263    -0.17400
C1238       C  0.94666253  0.07300064  0.33325189    -0.19600
C1239       C  0.92800807  0.04065470  0.31552746     0.21100
C1240       C  0.88732044  0.50636898  0.31908855    -0.02500
C1241       C  0.86601711  0.50439984  0.34083363    -0.05600
C1242       C  0.88576212  0.03642003  0.35890961     0.21300
C1243       C  0.82576937  0.46976896  0.34490806     0.19500
C1244       C  0.80697846  0.43775745  0.32687248    -0.17100
C1245       C  0.82841945  0.43936506  0.30541603    -0.19300
C1246       C  0.86884063  0.47322524  0.30151693     0.21000
C1247       C  0.89215247  0.47347776  0.28121403    -0.32300
C1248       C  0.93346393  0.50645211  0.27859276     0.01700
C1249       C  0.95042986  0.04071790  0.29510061    -0.23600
C1250       C  0.86576700  0.03311929  0.38107762    -0.28200
C1251       C  0.82549469  0.49899167  0.38547383     0.07400
C1252       C  0.80552152  0.46745343  0.36713853    -0.26900
H1253       H  0.94114439  0.09563121  0.36862017     0.12100
H1254       H  0.97791029  0.09937960  0.33072888     0.13200
H1255       H  0.77606768  0.41098768  0.32961898     0.12300
H1256       H  0.81371782  0.41370178  0.29211481     0.11500
H1257       H  0.87940277  0.44678695  0.26857724     0.16900
H1258       H  0.98235053  0.06602678  0.29297416     0.12800
H1259       H  0.88242505  0.05684501  0.39526547     0.15700
H1260       H  0.77448666  0.44109221  0.37018029     0.15500
C1261       C  0.59526306  0.16787581  0.30861535    -0.17400
C1262       C  0.61705643  0.18873228  0.33027276    -0.19600
C1263       C  0.64106102  0.17513526  0.34325682     0.21100
C1264       C  0.64502821  0.14181594  0.33350659    -0.02500
C1265       C  0.62446451  0.12190160  0.31109953    -0.05600
C1266       C  0.59810774  0.13388726  0.29915477     0.21300
C1267       C  0.62810613  0.08818356  0.30153996     0.19500
C1268       C  0.65288007  0.07526034  0.31415649    -0.17100
C1269       C  0.67213852  0.09413223  0.33670710    -0.19300
C1270       C  0.66774004  0.12690417  0.34674644     0.21000
C1271       C  0.68399489  0.14347914  0.37031413    -0.32300
C1272       C  0.67980497  0.17646245  0.38079373     0.01700
C1273       C  0.65963894  0.19314747  0.36627276    -0.23600
C1274       C  0.57272498  0.10961124  0.27918519    -0.28200
C1275       C  0.57455658  0.07455253  0.27059181     0.07400
C1276       C  0.60424422  0.06578154  0.28071760    -0.26900
H1277       H  0.57537149  0.17766914  0.29960660     0.12100
H1278       H  0.61369246  0.21436768  0.33742743     0.13200
H1279       H  0.65583053  0.04928624  0.30715377     0.12300
H1280       H  0.68975296  0.08245087  0.34656803     0.11500
H1281       H  0.69815180  0.12875732  0.38063609     0.16900
H1282       H  0.65708009  0.21946005  0.37285576     0.12800
H1283       H  0.54933801  0.11595825  0.27155661     0.15700
H1284       H  0.60525954  0.03845558  0.27412945     0.15500
C1285       C  0.94985717  0.30607235  0.32793973    -0.17400
C1286       C  0.95065626  0.32833733  0.30686416    -0.19600
C1287       C  0.97901674  0.37171751  0.30539955     0.21100
C1288       C  0.00737346  0.39272430  0.32513902    -0.02500
C1289       C  0.00641111  0.37043040  0.34636082    -0.05600
C1290       C  0.97728267  0.32691703  0.34787902     0.21300
C1291       C  0.53389655  0.39198755  0.36632346     0.19500
C1292       C  0.56246458  0.43525292  0.36487429    -0.17100
C1293       C  0.56346400  0.45732683  0.34381856    -0.19300
C1294       C  0.53580517  0.43636652  0.32404656     0.21000
C1295       C  0.53504094  0.45873816  0.30362078    -0.32300
C1296       C  0.00596701  0.43853900  0.28437070     0.01700
C1297       C  0.97846933  0.39486885  0.28505274    -0.23600
C1298       C  0.97572380  0.30531958  0.36948095    -0.28200
C1299       C  0.00294254  0.32691154  0.38938971     0.07400
C1300       C  0.53185356  0.37013358  0.38764592    -0.26900
H1301       H  0.92739109  0.27268834  0.32879283     0.12100
H1302       H  0.92871248  0.31176080  0.29186143     0.13200
H1303       H  0.58370493  0.45208030  0.38012621     0.12300
H1304       H  0.58536682  0.49089328  0.34315564     0.11500
H1305       H  0.55601498  0.49235505  0.30328798     0.16900
H1306       H  0.95514176  0.37937521  0.27057683     0.12800
H1307       H  0.95339436  0.27195269  0.37088179     0.15700
H1308       H  0.55217724  0.38709928  0.40323441     0.15500
C1309       C  0.85520000  0.05256076  0.17692317    -0.17400
C1310       C  0.87560600  0.05022998  0.19830664    -0.19600
C1311       C  0.88522543  0.01808689  0.20087358     0.21100
C1312       C  0.87245058  0.48690339  0.18220964    -0.02500
C1313       C  0.85267480  0.48972625  0.16053859    -0.05600
C1314       C  0.84455194  0.02309408  0.15763436     0.21300
C1315       C  0.84290060  0.46023584  0.14128095     0.19500
C1316       C  0.85088160  0.42708402  0.14413937    -0.17100
C1317       C  0.86987841  0.42392479  0.16570929    -0.19300
C1318       C  0.88160331  0.45420318  0.18451899     0.21000
C1319       C  0.90503916  0.45400977  0.20472270    -0.32300
C1320       C  0.92136931  0.48708522  0.22200903     0.01700
C1321       C  0.90988968  0.01808700  0.22079138    -0.23600
C1322       C  0.82718439  0.02699884  0.13522604    -0.28200
C1323       C  0.81856558  0.49822837  0.11572409     0.07400
C1324       C  0.82662509  0.46505487  0.11907887    -0.26900
H1325       H  0.84895118  0.07819015  0.17514418     0.12100
H1326       H  0.88490659  0.07424502  0.21252192     0.13200
H1327       H  0.84322731  0.40410097  0.12947141     0.12300
H1328       H  0.87682127  0.39872645  0.16729007     0.11500
H1329       H  0.91363362  0.42994225  0.20590355     0.16900
H1330       H  0.92282225  0.04382633  0.23409882     0.12800
H1331       H  0.82098443  0.05257452  0.13285513     0.15700
H1332       H  0.82151726  0.44342960  0.10401301     0.15500
C1333       C  0.57836153  0.40755559  0.16225119    -0.17400
C1334       C  0.57759438  0.42630926  0.18457678    -0.19600
C1335       C  0.53997082  0.41176215  0.19705889     0.21100
C1336       C  0.00313931  0.37679204  0.18755752    -0.02500
C1337       C  0.00428328  0.35693372  0.16548720    -0.05600
C1338       C  0.54173076  0.37325950  0.15237978     0.21300
C1339       C  0.96756054  0.32206074  0.15595800     0.19500
C1340       C  0.93000441  0.30714413  0.16865056    -0.17100
C1341       C  0.92845132  0.32804352  0.18988409    -0.19300
C1342       C  0.96471690  0.36329761  0.19925318     0.21000
C1343       C  0.96285693  0.38713874  0.21894823    -0.32300
C1344       C  0.99918827  0.42308418  0.22762027     0.01700
C1345       C  0.53790750  0.43357323  0.21773316    -0.23600
C1346       C  0.54157584  0.35646964  0.12907497    -0.28200
C1347       C  0.00483751  0.32202842  0.11889143     0.09800
C1348       C  0.96851915  0.30381122  0.13337507    -0.26900
H1349       H  0.60748087  0.42039581  0.15246739     0.12100
H1350       H  0.60606872  0.45334443  0.19151783     0.13200
H1351       H  0.90144495  0.28038284  0.16157008     0.12300
H1352       H  0.89873746  0.31714756  0.19868849     0.11500
H1353       H  0.93290961  0.37953399  0.22638302     0.16900
H1354       H  0.56576333  0.46170829  0.22434961     0.12800
H1355       H  0.56996004  0.37202359  0.11864080     0.15700
H1356       H  0.94025667  0.27615183  0.12697937     0.15500
C1357       C  0.62185907  0.16786824  0.19212525    -0.17400
C1358       C  0.64292698  0.19010996  0.17115536    -0.19600
C1359       C  0.64655529  0.16880557  0.15068507     0.21100
C1360       C  0.62956582  0.12478119  0.15150159    -0.02500
C1361       C  0.60864998  0.10249589  0.17264354    -0.05600
C1362       C  0.60429798  0.12404377  0.19295265     0.21300
C1363       C  0.59105448  0.05847605  0.17316363     0.19500
C1364       C  0.59484544  0.03703119  0.15283601    -0.17100
C1365       C  0.61549905  0.05910892  0.13183522    -0.19300
C1366       C  0.63272348  0.10285935  0.13100038     0.21000
C1367       C  0.65265510  0.12501098  0.10988737    -0.32300
C1368       C  0.66959009  0.16876552  0.10895579     0.01700
C1369       C  0.66645976  0.19058956  0.12930873    -0.23600
C1370       C  0.58115110  0.10115797  0.21330483    -0.28200
C1371       C  0.56270402  0.05718043  0.21355121     0.07400
C1372       C  0.56866194  0.03635828  0.19365997    -0.26900
H1373       H  0.61886060  0.18486981  0.20757762     0.12100
H1374       H  0.65593198  0.22390145  0.17082666     0.13200
H1375       H  0.58133116  0.00314759  0.15305675     0.12300
H1376       H  0.61774391  0.04196467  0.11619396     0.11500
H1377       H  0.65444642  0.10811793  0.09394274     0.16900
H1378       H  0.67962923  0.22439626  0.12847971     0.12800
H1379       H  0.57568001  0.11733562  0.22819041     0.15700
H1380       H  0.55450385  0.00255799  0.19356646     0.15500
C1381       C  0.87576315  0.31741509  0.83813450    -0.17400
C1382       C  0.89426978  0.33516471  0.81566066    -0.19600
C1383       C  0.90174992  0.37523994  0.80922879     0.21100
C1384       C  0.88956131  0.39724598  0.82538124    -0.02500
C1385       C  0.87178837  0.37976552  0.84823247    -0.05600
C1386       C  0.86509102  0.33977851  0.85466619     0.21300
C1387       C  0.86189868  0.40285996  0.86492204     0.19500
C1388       C  0.86841032  0.44251226  0.85828580    -0.17100
C1389       C  0.88563695  0.45970990  0.83551903    -0.19300
C1390       C  0.89687541  0.43758300  0.81920477     0.21000
C1391       C  0.91762448  0.45619841  0.79750679    -0.32300
C1392       C  0.93228346  0.43568841  0.78234317     0.01700
C1393       C  0.92328602  0.39478449  0.78767711    -0.23600
C1394       C  0.84841816  0.32309296  0.87767021    -0.28200
C1395       C  0.83961248  0.34639733  0.89473755     0.07400
C1396       C  0.84642877  0.38629179  0.88814611    -0.26900
H1397       H  0.87068753  0.28659505  0.84284117     0.12100
H1398       H  0.90336612  0.31785683  0.80350401     0.13200
H1399       H  0.86074685  0.46048493  0.87085329     0.12300
H1400       H  0.89124481  0.49078793  0.83095814     0.11500
H1401       H  0.92524215  0.48808445  0.79329875     0.16900
H1402       H  0.93550636  0.37959164  0.77606272     0.12800
H1403       H  0.84217230  0.29179631  0.88218890     0.15700
H1404       H  0.84035752  0.40485616  0.90119252     0.15500
C1405       C  0.94362165  0.12731530  0.83307696    -0.17400
C1406       C  0.94630029  0.11091550  0.81023639    -0.19600
C1407       C  0.97845359  0.10230412  0.80593015     0.21100
C1408       C  0.50864787  0.11112481  0.82473700    -0.02500
C1409       C  0.50517558  0.12633592  0.84796214    -0.05600
C1410       C  0.97253419  0.13453472  0.85217318     0.21300
C1411       C  0.53393586  0.13251728  0.86710612     0.19500
C1412       C  0.56650444  0.12460005  0.86277397    -0.17100
C1413       C  0.57045430  0.11035749  0.83964419    -0.19300
C1414       C  0.54145718  0.10317725  0.82068046     0.21000
C1415       C  0.54315170  0.08545323  0.79830144    -0.32300
C1416       C  0.51092856  0.07246193  0.78060837     0.01700
C1417       C  0.97956261  0.08256431  0.78388053    -0.23600
C1418       C  0.96952554  0.14988660  0.87536955    -0.28200
C1419       C  0.49827878  0.15628133  0.89452310     0.07400
C1420       C  0.52978411  0.14658720  0.89028168    -0.26900
H1421       H  0.91843498  0.13357934  0.83596784     0.12100
H1422       H  0.92290740  0.10445431  0.79605611     0.13200
H1423       H  0.58885702  0.12931572  0.87729780     0.12300
H1424       H  0.59553780  0.10389894  0.83677754     0.11500
H1425       H  0.56729430  0.07758719  0.79569980     0.16900
H1426       H  0.95434678  0.07193046  0.77037696     0.12800
H1427       H  0.94540480  0.15770551  0.87830282     0.15700
H1428       H  0.55149410  0.15038104  0.90501197     0.15500
C1429       C  0.67660910  0.07411936  0.83961673    -0.17400
C1430       C  0.66020111  0.07244645  0.81594416    -0.19600
C1431       C  0.62676230  0.03460871  0.80661641     0.21100
C1432       C  0.60979232  0.99811954  0.82126720    -0.02500
C1433       C  0.62519506  0.00029030  0.84543567    -0.05600
C1434       C  0.65907171  0.03825915  0.85456970     0.21300
C1435       C  0.60594532  0.46471700  0.86066257     0.19500
C1436       C  0.57255768  0.42683083  0.85141807    -0.17100
C1437       C  0.55798314  0.42431625  0.82727045    -0.19300
C1438       C  0.57598697  0.45992385  0.81224882     0.21000
C1439       C  0.55836939  0.45884240  0.78918875    -0.32300
C1440       C  0.57231982  0.99586256  0.77579162     0.01700
C1441       C  0.60781165  0.03320082  0.78377484    -0.23600
C1442       C  0.67491268  0.03959864  0.87842509    -0.28200
C1443       C  0.65576279  0.00409062  0.89391672     0.07400
C1444       C  0.62016351  0.46741510  0.88493268    -0.26900
H1445       H  0.70249193  0.10365651  0.84640847     0.12100
H1446       H  0.67335907  0.10082183  0.80504361     0.13200
H1447       H  0.55762829  0.39914991  0.86289671     0.12300
H1448       H  0.53173501  0.39490286  0.82061680     0.11500
H1449       H  0.53017859  0.43046536  0.78314112     0.16900
H1450       H  0.61773344  0.06193893  0.77355681     0.12800
H1451       H  0.70265188  0.06817286  0.88444283     0.15700
H1452       H  0.60313888  0.44040580  0.89662085     0.15500
C1453       C  0.83503552  0.39857730  0.68844692    -0.17400
C1454       C  0.81683024  0.38065682  0.66548913    -0.19600
C1455       C  0.83524454  0.36399606  0.65009113     0.21100
C1456       C  0.87124743  0.36374006  0.65835908    -0.02500
C1457       C  0.88869842  0.38034698  0.68183792    -0.05600
C1458       C  0.87132514  0.39914813  0.69663114     0.21300
C1459       C  0.92510411  0.38051581  0.68981942     0.19500
C1460       C  0.94313481  0.36326265  0.67469177    -0.17100
C1461       C  0.92639219  0.34776115  0.65122205    -0.19300
C1462       C  0.89093173  0.34855278  0.64277052     0.21000
C1463       C  0.87557873  0.33536032  0.61874881    -0.32300
C1464       C  0.83906581  0.33444992  0.61025987     0.01700
C1465       C  0.81874039  0.34829401  0.62642240    -0.23600
C1466       C  0.89246155  0.42095799  0.71830537    -0.28200
C1467       C  0.93020229  0.42350250  0.72514217     0.07400
C1468       C  0.94493641  0.40117273  0.71179063    -0.26900
H1469       H  0.82125181  0.41278772  0.69955433     0.12100
H1470       H  0.78910274  0.38105013  0.65943900     0.13200
H1471       H  0.97117531  0.36334309  0.68060167     0.12300
H1472       H  0.94159761  0.33578637  0.63951282     0.11500
H1473       H  0.89293271  0.32656207  0.60666569     0.16900
H1474       H  0.79002752  0.34695316  0.62080989     0.12800
H1475       H  0.88178636  0.43904754  0.72850718     0.15700
H1476       H  0.97462011  0.40410907  0.71702432     0.15500
C1477       C  0.56232844  0.18094022  0.66575067    -0.17400
C1478       C  0.56104613  0.16332495  0.68884147    -0.19600
C1479       C  0.52672101  0.12432928  0.69516052     0.21100
C1480       C  0.49299847  0.10331902  0.67817305    -0.02500
C1481       C  0.49489962  0.12042661  0.65465739    -0.05600
C1482       C  0.52972419  0.15941375  0.64839449     0.21300
C1483       C  0.96245524  0.09788512  0.63719144     0.19500
C1484       C  0.92780914  0.05919894  0.64356625    -0.17100
C1485       C  0.92555036  0.04259002  0.66698644    -0.19300
C1486       C  0.95819102  0.06417398  0.68422362     0.21000
C1487       C  0.95796208  0.04574422  0.70669156    -0.32300
C1488       C  0.49303094  0.06441836  0.72249864     0.01700
C1489       C  0.52663915  0.10451992  0.71733694    -0.23600
C1490       C  0.53146231  0.17595937  0.62482955    -0.28200
C1491       C  0.49943902  0.15336674  0.60712777     0.07400
C1492       C  0.96532719  0.11406719  0.61352402    -0.26900
H1493       H  0.58929607  0.21096050  0.66124675     0.12100
H1494       H  0.58718765  0.17989197  0.70160216     0.13200
H1495       H  0.90261557  0.04160209  0.63035651     0.12300
H1496       H  0.89884144  0.01227766  0.67137136     0.11500
H1497       H  0.93237107  0.01447508  0.71068076     0.16900
H1498       H  0.55404226  0.11835926  0.72935195     0.12800
H1499       H  0.55758121  0.20662032  0.62044512     0.15700
H1500       H  0.94092995  0.09569626  0.60002712     0.15500
C1501       C  0.60315777  0.93712915  0.68572588    -0.17400
C1502       C  0.62155432  0.93692955  0.66336966    -0.19600
C1503       C  0.63358113  0.96998721  0.64660141     0.21100
C1504       C  0.62817240  0.00416140  0.65270909    -0.02500
C1505       C  0.61050753  0.00483777  0.67544134    -0.05600
C1506       C  0.59712749  0.97073071  0.69184709     0.21300
C1507       C  0.60460216  0.03883039  0.68125828     0.19500
C1508       C  0.61706508  0.07213985  0.66471600    -0.17100
C1509       C  0.63411504  0.07120034  0.64209066    -0.19300
C1510       C  0.63926350  0.03711267  0.63580883     0.21000
C1511       C  0.65452525  0.03510386  0.61269389    -0.32300
C1512       C  0.66038482  0.00132320  0.60635734     0.01700
C1513       C  0.65035993  0.96918266  0.62370125    -0.23600
C1514       C  0.57604151  0.96994419  0.71336968    -0.28200
C1515       C  0.56856494  0.00291828  0.71839027     0.07400
C1516       C  0.58415689  0.03781193  0.70285732    -0.26900
H1517       H  0.59309779  0.91072326  0.69805664     0.12100
H1518       H  0.62554059  0.91044990  0.65895235     0.13200
H1519       H  0.61258632  0.09837063  0.66899615     0.12300
H1520       H  0.64274195  0.09685790  0.62935710     0.11500
H1521       H  0.66108508  0.55966381  0.59953029     0.16900
H1522       H  0.65568756  0.94349817  0.61952844     0.12800
H1523       H  0.56310517  0.94269819  0.72524652     0.15700
H1524       H  0.57771668  0.06288734  0.70678462     0.15500
C1525       C  0.50519526  0.50006903  0.77441259     0.45900
H1526       H  0.50843680  0.50088374  0.79489332    -0.03200
C1527       C  0.49715910  0.99676419  0.72696748     0.45900
H1528       H  0.49373723  0.99510722  0.70648655    -0.03200
C1529       C  0.96489287  0.96171015  0.76492025    -0.16900
C1530       C  0.50475924  0.53834014  0.76368321    -0.16600
C1531       C  0.54046294  0.49849002  0.76113765    -0.17000
C1532       C  0.96130772  0.95927812  0.73986001    -0.17000
C1533       C  0.49894593  0.53579740  0.73857856    -0.16500
C1534       C  0.53687519  0.49786762  0.73607882    -0.16800
O1535       O  0.74664482  0.60920509  0.97144072    -0.78100
C1536       C  0.75913575  0.68462760  0.03844783     0.83000
O1537       O  0.85913498  0.76118565  0.97166220    -0.79200
O1538       O  0.89415085  0.71922847  0.05132799    -0.80700
O1539       O  0.83492998  0.58570317  0.01897345    -0.80500
O1540       O  0.79032571  0.58447041  0.96848348    -0.79100
Zn1541     Zn  0.78246617  0.66538547  0.98880835     1.55700
O1542       O  0.82176149  0.61367003  0.05185562    -0.80500
Cd1543     Cd  0.84085205  0.62453955  0.98996148     1.59700
Cd1544     Cd  0.88099965  0.72550134  0.98918794     1.59600
O1545       O  0.89590913  0.64536977  0.97062035    -0.80500
O1546       O  0.83426826  0.67192210  0.00161130    -1.91000
Cd1547     Cd  0.83520130  0.67271922  0.03856493     1.59900
O1548       O  0.91760614  0.71374503  0.96608014    -0.80500
O1549       O  0.78995609  0.68625122  0.05025474    -0.79100
C1550       C  0.82226963  0.74966985  0.96387266     0.83400
C1551       C  0.75490193  0.58109570  0.96453091     0.83100
O1552       O  0.75175933  0.67404574  0.01578614    -0.78100
C1553       C  0.82385588  0.58362696  0.04135952     0.83900
O1554       O  0.79182702  0.71265014  0.96702809    -0.78200
C1555       C  0.92170365  0.68179927  0.96242406     0.84000
C1556       C  0.92430763  0.75036112  0.04052085     0.84400
O1557       O  0.92224158  0.75814609  0.01778986    -0.80600
C1558       C  0.82213759  0.82832314  0.91909546     0.03500
C1559       C  0.79197663  0.83560673  0.92984826    -0.12600
C1560       C  0.77215567  0.81492012  0.95141766     0.01000
C1561       C  0.78179928  0.78622262  0.96211119    -0.11100
C1562       C  0.81311962  0.78015170  0.95227297     0.03500
C1563       C  0.83383581  0.80185340  0.93113468    -0.10600
H1564       H  0.78245215  0.85586372  0.92103890     0.09100
H1565       H  0.76580901  0.76954987  0.97860396     0.06700
H1566       H  0.85799130  0.79692421  0.92369670     0.06500
O1567       O  0.66643468  0.75115492  0.01589374    -0.78100
C1568       C  0.57509250  0.75884913  0.96303800     0.83000
O1569       O  0.75304926  0.86003069  0.97117934    -0.79200
O1570       O  0.64208871  0.90159702  0.97212095    -0.80700
O1571       O  0.60874984  0.82144340  0.05104102    -0.80500
O1572       O  0.68147114  0.79130304  0.04977286    -0.79100
Zn1573     Zn  0.65801095  0.78272440  0.98831832     1.55700
O1574       O  0.58059291  0.83565355  0.01850778    -0.80500
Cd1575     Cd  0.66681288  0.83593900  0.03755311     1.59700
Cd1576     Cd  0.71844678  0.88243364  0.98834985     1.59600
O1577       O  0.71131828  0.89599757  0.04966416    -0.80500
O1578       O  0.66550365  0.83527442  0.00076398    -1.91000
Cd1579     Cd  0.61949425  0.84380928  0.98951653     1.59900
O1580       O  0.75043375  0.92485520  0.01647634    -0.80500
O1581       O  0.57997656  0.79527118  0.96659688    -0.79100
C1582       C  0.74154501  0.82304170  0.96317904     0.83400
C1583       C  0.67853289  0.75944909  0.03838274     0.83100
O1584       O  0.60158354  0.74879991  0.97069150    -0.78100
C1585       C  0.57890631  0.82394047  0.04081222     0.83900
O1586       O  0.70488670  0.79209804  0.96630707    -0.78200
C1587       C  0.74189456  0.92683255  0.03896126     0.84000
C1588       C  0.67775596  0.92631473  0.96295809     0.84400
O1589       O  0.70818510  0.91977451  0.96480907    -0.80600
C1590       C  0.68961310  0.69085818  0.08621186     0.03500
C1591       C  0.71770378  0.68173523  0.07463918    -0.12600
C1592       C  0.73144184  0.69621409  0.05095212     0.01000
C1593       C  0.71758249  0.72082954  0.03891311    -0.11100
C1594       C  0.69145552  0.73234860  0.05097666     0.03500
C1595       C  0.67775834  0.71750825  0.07476837    -0.10600
H1596       H  0.72740938  0.66173340  0.08366500     0.09100
H1597       H  0.72811554  0.73205543  0.02043137     0.06700
H1598       H  0.65612384  0.72470439  0.08371715     0.06500
C1599       C  0.67400171  0.50413798  0.91874737     0.03500
C1600       C  0.66639670  0.96582804  0.92937338    -0.12600
C1601       C  0.68568629  0.96569222  0.95159426     0.01000
C1602       C  0.71459999  0.50374815  0.96284230    -0.11100
C1603       C  0.72238019  0.54199045  0.95289067     0.03500
C1604       C  0.70101838  0.54219911  0.93146124    -0.10600
H1605       H  0.64713522  0.93586263  0.92017748     0.09100
H1606       H  0.73082484  0.50359134  0.97961825     0.06700
H1607       H  0.70686762  0.57217567  0.92451714     0.06500
C1608       C  0.00355924  0.80783044  0.09259614     0.03500
C1609       C  0.96527097  0.78609032  0.07919747    -0.12600
C1610       C  0.96422274  0.77660959  0.05404160     0.01000
C1611       C  0.00179129  0.79059642  0.04168781    -0.11100
C1612       C  0.54011712  0.81112045  0.05449469     0.03500
C1613       C  0.54071659  0.81819192  0.08001068    -0.10600
H1614       H  0.93593442  0.77746926  0.08770281     0.09100
H1615       H  0.00109420  0.78358816  0.02216551     0.06700
H1616       H  0.57047901  0.83257915  0.08964866     0.06500
C1617       C  0.49760999  0.67593892  0.91836795     0.03500
C1618       C  0.53566334  0.70557601  0.92986872    -0.12600
C1619       C  0.53594056  0.72706412  0.95117465     0.01000
C1620       C  0.49822101  0.71937669  0.96108784    -0.11100
C1621       C  0.96007913  0.68900900  0.95054935     0.03500
C1622       C  0.95967356  0.66695952  0.92927085    -0.10600
H1623       H  0.56521209  0.71357205  0.92171714     0.09100
H1624       H  0.49855556  0.73644812  0.97754631     0.06700
H1625       H  0.93009397  0.64364129  0.92107098     0.06500
C1626       C  0.80261038  0.00235418  0.09121921     0.03500
C1627       C  0.77515147  0.96539775  0.07802358    -0.12600
C1628       C  0.76788989  0.96645460  0.05283716     0.01000
C1629       C  0.78551253  0.00544105  0.04100253    -0.11100
C1630       C  0.80949607  0.54335047  0.05436778     0.03500
C1631       C  0.81829223  0.54169809  0.07957690    -0.10600
H1632       H  0.76121795  0.93517658  0.08708984     0.09100
H1633       H  0.77901181  0.00635499  0.02151101     0.06700
H1634       H  0.83887331  0.57059021  0.08957250     0.06500
O1635       O  0.74857192  0.66503787  0.48127869    -0.78100
C1636       C  0.75667516  0.57594716  0.53651454     0.83000
O1637       O  0.85823393  0.75235648  0.53134947    -0.79200
O1638       O  0.89803098  0.63980457  0.52834919    -0.80700
O1639       O  0.81842926  0.60468187  0.44922337    -0.80500
O1640       O  0.78799125  0.67820379  0.44809953    -0.79100
Zn1641     Zn  0.78009919  0.65754546  0.50971178     1.55700
O1642       O  0.82930890  0.57637067  0.48288011    -0.80500
Cd1643     Cd  0.83283165  0.66455389  0.46179523     1.59700
Cd1644     Cd  0.88004400  0.71825188  0.51220459     1.59600
O1645       O  0.89213273  0.71023493  0.45035075    -0.80500
O1646       O  0.83261906  0.66485914  0.49874618    -1.91000
Cd1647     Cd  0.84015933  0.61836223  0.51104723     1.59900
O1648       O  0.91944643  0.75133391  0.48394798    -0.80500
O1649       O  0.79301674  0.58114176  0.53424010    -0.79100
C1650       C  0.82101961  0.74123252  0.53754817     0.83400
C1651       C  0.75641262  0.67592019  0.45875503     0.83100
O1652       O  0.74634589  0.60151396  0.52747006    -0.78100
C1653       C  0.81877174  0.57412785  0.46021865     0.83900
O1654       O  0.79000451  0.70535617  0.53183251    -0.78200
C1655       C  0.92181761  0.74225182  0.46151840     0.84000
C1656       C  0.92478983  0.67629988  0.53662783     0.84400
O1657       O  0.92002926  0.70801894  0.53406676    -0.80600
C1658       C  0.82184428  0.81803323  0.58487323     0.03500
C1659       C  0.83031940  0.78883827  0.57307723    -0.12600
C1660       C  0.81243206  0.77140094  0.55008006     0.01000
C1661       C  0.78442969  0.78143138  0.53905048    -0.11100
C1662       C  0.77606552  0.81074083  0.55003464     0.03500
C1663       C  0.79566845  0.82999932  0.57249861    -0.10600
H1664       H  0.84920568  0.77779871  0.58194579     0.09100
H1665       H  0.76956379  0.76684926  0.52152373     0.06700
H1666       H  0.78945718  0.85328331  0.58037710     0.06500
O1667       O  0.60467927  0.73972475  0.52854049    -0.78100
C1668       C  0.67564680  0.75018019  0.45946637     0.83000
O1669       O  0.75598740  0.85624403  0.53110435    -0.79200
O1670       O  0.71196193  0.88736242  0.44937219    -0.80700
O1671       O  0.57991456  0.82592540  0.48545797    -0.80500
O1672       O  0.58445332  0.78647243  0.53563767    -0.79100
Zn1673     Zn  0.66070571  0.77537559  0.51086854     1.55700
O1674       O  0.60680705  0.81557888  0.45125472    -0.80500
Cd1675     Cd  0.62177206  0.83521581  0.51314763     1.59700
Cd1676     Cd  0.72130166  0.87705337  0.51155267     1.59600
O1677       O  0.64271348  0.89269969  0.53114302    -0.80500
O1678       O  0.66760468  0.82838214  0.49952997    -1.91000
Cd1679     Cd  0.66604247  0.82844213  0.46249224     1.59900
O1680       O  0.71134648  0.91755789  0.53284507    -0.80500
O1681       O  0.67650496  0.78138769  0.44860223    -0.79100
C1682       C  0.74539766  0.81898532  0.53783609     0.83400
C1683       C  0.57896892  0.74959099  0.53745249     0.83100
O1684       O  0.66742526  0.74343280  0.48236907    -0.78100
C1685       C  0.57714203  0.81605492  0.46270405     0.83900
O1686       O  0.70962729  0.78730819  0.53269019    -0.78200
C1687       C  0.67965295  0.92101160  0.53744221     0.84000
C1688       C  0.74439948  0.91747732  0.45994150     0.84400
O1689       O  0.75363648  0.91580668  0.48252172    -0.80600
C1690       C  0.67782851  0.50019757  0.58192394     0.03500
C1691       C  0.70668748  0.53806285  0.57037432    -0.12600
C1692       C  0.72536938  0.53717389  0.54835538     0.01000
C1693       C  0.71638008  0.49856070  0.53806125    -0.11100
C1694       C  0.68717274  0.96065724  0.54880399     0.03500
C1695       C  0.66712740  0.96145001  0.57035499    -0.10600
H1696       H  0.71635681  0.56832107  0.57890346     0.09100
H1697       H  0.73189342  0.49801984  0.52134090     0.06700
H1698       H  0.64420702  0.93189561  0.57832740     0.06500
C1699       C  0.50054108  0.67134592  0.58232986     0.03500
C1700       C  0.96303541  0.66381237  0.57074659    -0.12600
C1701       C  0.96365923  0.68297308  0.54841442     0.01000
C1702       C  0.50196639  0.71041056  0.53764622    -0.11100
C1703       C  0.53958862  0.71753747  0.54844727     0.03500
C1704       C  0.53880749  0.69752990  0.57057062    -0.10600
H1705       H  0.93330268  0.64468048  0.57952987     0.09100
H1706       H  0.50252182  0.72631541  0.52070132     0.06700
H1707       H  0.56800251  0.70351526  0.57888863     0.06500
C1708       C  0.00075064  0.80575200  0.41275396     0.03500
C1709       C  0.96234970  0.78077881  0.42433740    -0.12600
C1710       C  0.96154768  0.76841296  0.44884687     0.01000
C1711       C  0.99938497  0.78098826  0.46156371    -0.11100
C1712       C  0.53767270  0.80379418  0.44953908     0.03500
C1713       C  0.53802828  0.81525424  0.42504094    -0.10600
H1714       H  0.93340908  0.77310964  0.41489891     0.09100
H1715       H  0.99894576  0.77168679  0.48058415     0.06700
H1716       H  0.56762868  0.83364683  0.41591284     0.06500
C1717       C  0.69369386  0.69096020  0.40722014     0.03500
C1718       C  0.67811517  0.71320230  0.42065669    -0.12600
C1719       C  0.68781258  0.72294230  0.44587421     0.01000
C1720       C  0.71176040  0.70867934  0.45817610    -0.11100
C1721       C  0.72901296  0.68810077  0.44531782     0.03500
C1722       C  0.72118314  0.68083976  0.41983309    -0.10600
H1723       H  0.65748316  0.72230259  0.41211925     0.09100
H1724       H  0.71912411  0.71586809  0.47765647     0.06700
H1725       H  0.73644096  0.66672127  0.41024260     0.06500
C1726       C  0.80603875  0.99659313  0.40974179     0.03500
C1727       C  0.81516093  0.53420660  0.42200130    -0.12600
C1728       C  0.80556121  0.53417344  0.44680709     0.01000
C1729       C  0.78372984  0.99565221  0.45908157    -0.11100
C1730       C  0.77055194  0.95727427  0.44661307     0.03500
C1731       C  0.78208189  0.95786126  0.42191933    -0.10600
H1732       H  0.83160902  0.56404852  0.41259116     0.09100
H1733       H  0.77548100  0.99544971  0.47823204     0.06700
H1734       H  0.77414413  0.92847530  0.41278640     0.06500
C1735       C  0.99280194  0.49000067  0.22601973     0.45900
H1736       H  0.98840611  0.48316186  0.20586806    -0.03200
C1737       C  0.50265383  0.50592911  0.27287429     0.45900
H1738       H  0.50674278  0.01270275  0.29304967    -0.03200
C1739       C  0.53289105  0.53160315  0.23279880    -0.16900
C1740       C  0.95689297  0.99311978  0.23752198    -0.16600
C1741       C  0.99582390  0.95638163  0.24077916    -0.17000
C1742       C  0.53781158  0.54004241  0.25767214    -0.17000
C1743       C  0.96240378  0.00207754  0.26223684    -0.16500
C1744       C  0.00110031  0.96470126  0.26559852    -0.16800
C1745       C  0.92572550  0.57076470  0.35485288    -0.17400
C1746       C  0.94661728  0.57297899  0.33322930    -0.19600
C1747       C  0.92797430  0.54060378  0.31552191     0.21100
C1748       C  0.88733429  0.00644287  0.31907415    -0.02500
C1749       C  0.86602120  0.00446526  0.34081645    -0.05600
C1750       C  0.88574793  0.53638631  0.35890975     0.21300
C1751       C  0.82575261  0.96985473  0.34487124     0.19500
C1752       C  0.80695010  0.93787565  0.32681763    -0.17100
C1753       C  0.82840011  0.93949123  0.30536370    -0.19300
C1754       C  0.86884257  0.97332737  0.30148532     0.21000
C1755       C  0.89216146  0.97357941  0.28118635    -0.32300
C1756       C  0.93349068  0.00652747  0.27858458     0.01700
C1757       C  0.95039047  0.54066369  0.29509284    -0.23600
C1758       C  0.86576477  0.53309790  0.38108086    -0.28200
C1759       C  0.82547885  0.99903089  0.38545212     0.07400
C1760       C  0.80549608  0.96752499  0.36710071    -0.26900
H1761       H  0.94110117  0.59564299  0.36858700     0.12100
H1762       H  0.97784953  0.59937595  0.33069086     0.13200
H1763       H  0.77602285  0.91112310  0.32954830     0.12300
H1764       H  0.81368845  0.91385081  0.29204852     0.11500
H1765       H  0.87939943  0.94690457  0.26853737     0.16900
H1766       H  0.98229943  0.56598991  0.29295211     0.12800
H1767       H  0.88241986  0.55684919  0.39525610     0.15700
H1768       H  0.77444777  0.94117800  0.37013001     0.15500
C1769       C  0.59526155  0.66784853  0.30860393    -0.17400
C1770       C  0.61705915  0.68871193  0.33025889    -0.19600
C1771       C  0.64105687  0.67511183  0.34324768     0.21100
C1772       C  0.64501479  0.64178303  0.33350391    -0.02500
C1773       C  0.62444854  0.62186258  0.31109870    -0.05600
C1774       C  0.59809650  0.63385046  0.29915006     0.21300
C1775       C  0.62808199  0.58813615  0.30154533     0.19500
C1776       C  0.65284942  0.57520969  0.31416636    -0.17100
C1777       C  0.67210892  0.59408671  0.33671574    -0.19300
C1778       C  0.66771883  0.62686765  0.34674880     0.21000
C1779       C  0.68397361  0.64344801  0.37031548    -0.32300
C1780       C  0.67979285  0.67644115  0.38078835     0.01700
C1781       C  0.65963608  0.69312982  0.36626234    -0.23600
C1782       C  0.57270878  0.60956801  0.27918362    -0.28200
C1783       C  0.57453454  0.57450333  0.27059547     0.07400
C1784       C  0.60421809  0.56572964  0.28072476    -0.26900
H1785       H  0.57537443  0.67764428  0.29959187     0.12100
H1786       H  0.61370276  0.71435483  0.33740845     0.13200
H1787       H  0.65579325  0.54922902  0.30716839     0.12300
H1788       H  0.68971746  0.58240262  0.34658061     0.11500
H1789       H  0.69812253  0.62872298  0.38064222     0.16900
H1790       H  0.65708488  0.71944926  0.37284100     0.12800
H1791       H  0.54932361  0.61591616  0.27155337     0.15700
H1792       H  0.60522760  0.53839807  0.27414135     0.15500
C1793       C  0.94976190  0.80612938  0.32795578    -0.17400
C1794       C  0.95056185  0.82839608  0.30688087    -0.19600
C1795       C  0.97896029  0.87176550  0.30540402     0.21100
C1796       C  0.00735024  0.89275994  0.32513145    -0.02500
C1797       C  0.00638791  0.87046412  0.34635238    -0.05600
C1798       C  0.97722497  0.82696167  0.34788216     0.21300
C1799       C  0.53390971  0.89200961  0.36630272     0.19500
C1800       C  0.56251256  0.93526501  0.36484223    -0.17100
C1801       C  0.56351110  0.95734120  0.34378773    -0.19300
C1802       C  0.53581775  0.93639304  0.32402788     0.21000
C1803       C  0.53505708  0.95876912  0.30360334    -0.32300
C1804       C  0.00595800  0.93858151  0.28436393     0.01700
C1805       C  0.97842221  0.89492005  0.28505653    -0.23600
C1806       C  0.97567042  0.80536291  0.36948271    -0.28200
C1807       C  0.00292433  0.82694313  0.38938054     0.07400
C1808       C  0.53186797  0.87015560  0.38762506    -0.26900
H1809       H  0.92726753  0.77275403  0.32881830     0.12100
H1810       H  0.92859092  0.81182966  0.29188802     0.13200
H1811       H  0.58378121  0.95208350  0.38008466     0.12300
H1812       H  0.58544173  0.99090036  0.34311620     0.11500
H1813       H  0.55605602  0.99238098  0.30326227     0.16900
H1814       H  0.95507674  0.87943936  0.27058777     0.12800
H1815       H  0.95331615  0.77200384  0.37089080     0.15700
H1816       H  0.55221848  0.88711669  0.40320484     0.15500
C1817       C  0.85525668  0.55258137  0.17692389    -0.17400
C1818       C  0.87565201  0.55023657  0.19830859    -0.19600
C1819       C  0.88525243  0.51807992  0.20087553     0.21100
C1820       C  0.87242485  0.98690447  0.18221135    -0.02500
C1821       C  0.85263646  0.98971239  0.16054166    -0.05600
C1822       C  0.84460160  0.52311594  0.15763348     0.21300
C1823       C  0.84286515  0.96021851  0.14128641     0.19500
C1824       C  0.85085578  0.92707339  0.14414795    -0.17100
C1825       C  0.86986650  0.92392969  0.16571642    -0.19300
C1826       C  0.88159486  0.95421652  0.18452160     0.21000
C1827       C  0.90505191  0.95404553  0.20472045    -0.32300
C1828       C  0.92138232  0.98712956  0.22200160     0.01700
C1829       C  0.90989781  0.51805855  0.22079791    -0.23600
C1830       C  0.82723446  0.52702667  0.13522649    -0.28200
C1831       C  0.81852486  0.99820223  0.11572429     0.07400
C1832       C  0.82658710  0.96503069  0.11908284    -0.26900
H1833       H  0.84901889  0.57821835  0.17514607     0.12100
H1834       H  0.88495602  0.57424887  0.21252595     0.13200
H1835       H  0.84320200  0.90408622  0.12948256     0.12300
H1836       H  0.87681991  0.89873879  0.16729853     0.11500
H1837       H  0.91365937  0.92998790  0.20590135     0.16900
H1838       H  0.92283336  0.54379303  0.23410865     0.12800
H1839       H  0.82103968  0.55260619  0.13285770     0.15700
H1840       H  0.82148304  0.94340433  0.10401836     0.15500
C1841       C  0.57837091  0.90758761  0.16225481    -0.17400
C1842       C  0.57760410  0.92633821  0.18458197    -0.19600
C1843       C  0.53997751  0.91180147  0.19705930     0.21100
C1844       C  0.00314222  0.87684377  0.18755170    -0.02500
C1845       C  0.00428497  0.85698918  0.16547961    -0.05600
C1846       C  0.54173610  0.87330505  0.15237671     0.21300
C1847       C  0.96755817  0.82212879  0.15594487     0.19500
C1848       C  0.92999874  0.80722219  0.16863214    -0.17100
C1849       C  0.92844770  0.82811791  0.18986752    -0.19300
C1850       C  0.96471803  0.86335813  0.19924338     0.21000
C1851       C  0.96286147  0.88719529  0.21894135    -0.32300
C1852       C  0.99919560  0.92313222  0.22761732     0.01700
C1853       C  0.53791548  0.93361193  0.21773451    -0.23600
C1854       C  0.54158135  0.85651800  0.12907050    -0.28200
C1855       C  0.00483877  0.82208786  0.11888215     0.09800
C1856       C  0.96851661  0.80387991  0.13336236    -0.26900
H1857       H  0.60749339  0.92041988  0.15247508     0.12100
H1858       H  0.60608186  0.95336343  0.19152806     0.13200
H1859       H  0.90143597  0.78047122  0.16154653     0.12300
H1860       H  0.89873226  0.81723011  0.19866820     0.11500
H1861       H  0.93291470  0.87959688  0.22637409     0.16900
H1862       H  0.56577402  0.96174081  0.22435448     0.12800
H1863       H  0.56997013  0.87206374  0.11864024     0.15700
H1864       H  0.94025066  0.77622599  0.12696564     0.15500
C1865       C  0.62177319  0.66782436  0.19211813    -0.17400
C1866       C  0.64283059  0.69006787  0.17114591    -0.19600
C1867       C  0.64646618  0.66876765  0.15067567     0.21100
C1868       C  0.62948991  0.62474531  0.15149370    -0.02500
C1869       C  0.60858511  0.60245846  0.17263804    -0.05600
C1870       C  0.60422971  0.62400210  0.19294821     0.21300
C1871       C  0.59100734  0.55844101  0.17316043     0.19500
C1872       C  0.59480055  0.53699965  0.15283179    -0.17100
C1873       C  0.61544275  0.55907863  0.13182887    -0.19300
C1874       C  0.63265415  0.60282709  0.13099275     0.21000
C1875       C  0.65258473  0.62498063  0.10987997    -0.32300
C1876       C  0.66951450  0.66873420  0.10894822     0.01700
C1877       C  0.66637021  0.69055403  0.12929925    -0.23600
C1878       C  0.58109822  0.60111354  0.21330448    -0.28200
C1879       C  0.56267013  0.55713766  0.21355363     0.07400
C1880       C  0.56863101  0.53632110  0.19366058    -0.26900
H1881       H  0.61877119  0.68482298  0.20757086     0.12100
H1882       H  0.65582452  0.72385769  0.17081615     0.13200
H1883       H  0.58129879  0.50311772  0.15305400     0.12300
H1884       H  0.61769200  0.54193705  0.11618766     0.11500
H1885       H  0.65438473  0.60809031  0.09393664     0.16900
H1886       H  0.67953351  0.72435982  0.12847004     0.12800
H1887       H  0.57562388  0.61728652  0.22819130     0.15700
H1888       H  0.55448695  0.50252229  0.19356883     0.15500
C1889       C  0.87587629  0.81742184  0.83816434    -0.17400
C1890       C  0.89437307  0.83516117  0.81568641    -0.19600
C1891       C  0.90180493  0.87521286  0.80923641     0.21100
C1892       C  0.88958364  0.89720619  0.82537659    -0.02500
C1893       C  0.87182483  0.87973905  0.84823278    -0.05600
C1894       C  0.86516803  0.83977320  0.85468273     0.21300
C1895       C  0.86190369  0.90282473  0.86490987     0.19500
C1896       C  0.86837392  0.94245537  0.85825804    -0.17100
C1897       C  0.88558320  0.95963600  0.83548564    -0.19300
C1898       C  0.89684836  0.93751842  0.81918212     0.21000
C1899       C  0.91757636  0.95612105  0.79747726    -0.32300
C1900       C  0.93226902  0.93562982  0.78232547     0.01700
C1901       C  0.92332483  0.89474932  0.78767867    -0.23600
C1902       C  0.84849215  0.82309497  0.87768770    -0.28200
C1903       C  0.83964684  0.84638881  0.89474135     0.07400
C1904       C  0.84643741  0.88626842  0.88813625    -0.26900
H1905       H  0.87083396  0.78661892  0.84288389     0.12100
H1906       H  0.90349630  0.81786363  0.80353983     0.13200
H1907       H  0.86068730  0.96042191  0.87081589     0.12300
H1908       H  0.89115567  0.99069652  0.83091129     0.11500
H1909       H  0.92515881  0.98799217  0.79325596     0.16900
H1910       H  0.93557456  0.87957260  0.77607449     0.12800
H1911       H  0.84226935  0.79180956  0.88221548     0.15700
H1912       H  0.84034240  0.90482886  0.90117214     0.15500
C1913       C  0.94360003  0.62731185  0.83306382    -0.17400
C1914       C  0.94628652  0.61091984  0.81022226    -0.19600
C1915       C  0.97845379  0.60233029  0.80591343     0.21100
C1916       C  0.50865384  0.61116484  0.82471863    -0.02500
C1917       C  0.50517258  0.62636507  0.84794523    -0.05600
C1918       C  0.97251804  0.63454322  0.85215889     0.21300
C1919       C  0.53393687  0.63255511  0.86708829     0.19500
C1920       C  0.56651946  0.62466028  0.86275362    -0.17100
C1921       C  0.57047934  0.61043102  0.83962202    -0.19300
C1922       C  0.54147744  0.60323984  0.82065934     0.21000
C1923       C  0.54318010  0.58552318  0.79827944    -0.32300
C1924       C  0.51095008  0.57251294  0.78058973     0.01700
C1925       C  0.97957074  0.58259570  0.78386368    -0.23600
C1926       C  0.96950272  0.64988754  0.87535651    -0.28200
C1927       C  0.49826090  0.65629186  0.89450908     0.07400
C1928       C  0.52977579  0.64661207  0.89026549    -0.26900
H1929       H  0.91840297  0.63355954  0.83595649     0.12100
H1930       H  0.92288883  0.60444750  0.79604317     0.13200
H1931       H  0.58887556  0.62938358  0.87727683     0.12300
H1932       H  0.59557366  0.60398943  0.83675338     0.11500
H1933       H  0.56733194  0.57767053  0.79567640     0.16900
H1934       H  0.95434968  0.57194668  0.77036254     0.12800
H1935       H  0.94537344  0.65769372  0.87829119     0.15700
H1936       H  0.55148812  0.65040941  0.90499506     0.15500
C1937       C  0.67664325  0.57414470  0.83962383    -0.17400
C1938       C  0.66022847  0.57247583  0.81595356    -0.19600
C1939       C  0.62678286  0.53464094  0.80662739     0.21100
C1940       C  0.60981242  0.49815130  0.82127771    -0.02500
C1941       C  0.62522134  0.50031852  0.84544401    -0.05600
C1942       C  0.65910552  0.53828367  0.85457635     0.21300
C1943       C  0.60592035  0.96468920  0.86065461     0.19500
C1944       C  0.57254005  0.92679939  0.85140790    -0.17100
C1945       C  0.55797053  0.92428185  0.82725838    -0.19300
C1946       C  0.57597266  0.95988963  0.81223661     0.21000
C1947       C  0.55835777  0.95880656  0.78917500    -0.32300
C1948       C  0.57233366  0.49589783  0.77580509     0.01700
C1949       C  0.60782757  0.53323546  0.78378772    -0.23600
C1950       C  0.67495194  0.53961786  0.87842977    -0.28200
C1951       C  0.65579913  0.50410843  0.89392044     0.07400
C1952       C  0.62013314  0.96739194  0.88492703    -0.26900
H1953       H  0.70253158  0.60367925  0.84641421     0.12100
H1954       H  0.67338724  0.60085167  0.80505339     0.13200
H1955       H  0.55761183  0.89911830  0.86288645     0.12300
H1956       H  0.53172709  0.89486617  0.82060341     0.11500
H1957       H  0.53016903  0.93042826  0.78312654     0.16900
H1958       H  0.61775119  0.56197351  0.77356934     0.12800
H1959       H  0.70269537  0.56818848  0.88444740     0.15700
H1960       H  0.60310967  0.94038202  0.89661478     0.15500
C1961       C  0.83503914  0.89859843  0.68842026    -0.17400
C1962       C  0.81683532  0.88068414  0.66546116    -0.19600
C1963       C  0.83524653  0.86402071  0.65006279     0.21100
C1964       C  0.87124651  0.86375875  0.65833067    -0.02500
C1965       C  0.88869571  0.88035922  0.68181059    -0.05600
C1966       C  0.87132394  0.89916008  0.69660527     0.21300
C1967       C  0.92509718  0.88051986  0.68979255     0.19500
C1968       C  0.94312687  0.86326751  0.67466351    -0.17100
C1969       C  0.92638623  0.84777253  0.65119271    -0.19300
C1970       C  0.89092868  0.84856992  0.64274156     0.21000
C1971       C  0.87557507  0.83537922  0.61872013    -0.32300
C1972       C  0.83906240  0.83447011  0.61023248     0.01700
C1973       C  0.81874099  0.84831950  0.62639429    -0.23600
C1974       C  0.89245645  0.92095880  0.71828285    -0.28200
C1975       C  0.93019184  0.92349279  0.72512136     0.07400
C1976       C  0.94492588  0.90116644  0.71176660    -0.26900
H1977       H  0.82125731  0.91280972  0.69952859     0.12100
H1978       H  0.78911063  0.88108275  0.65941084     0.13200
H1979       H  0.97116437  0.86334221  0.68057369     0.12300
H1980       H  0.94158994  0.83579677  0.63948278     0.11500
H1981       H  0.89292682  0.82657878  0.60663649     0.16900
H1982       H  0.79002939  0.84698145  0.62078176     0.12800
H1983       H  0.88178192  0.93904642  0.72848729     0.15700
H1984       H  0.97460649  0.90409633  0.71700131     0.15500
C1985       C  0.56233028  0.68098121  0.66575193    -0.17400
C1986       C  0.56105289  0.66335743  0.68883912    -0.19600
C1987       C  0.52673277  0.62435556  0.69515421     0.21100
C1988       C  0.49300913  0.60334825  0.67816721    -0.02500
C1989       C  0.49490411  0.62046610  0.65465574    -0.05600
C1990       C  0.52972528  0.65945807  0.64839578     0.21300
C1991       C  0.96245821  0.59792873  0.63719016     0.19500
C1992       C  0.92781546  0.55923787  0.64356168    -0.17100
C1993       C  0.92556376  0.54261760  0.66697741    -0.19300
C1994       C  0.95820735  0.56419592  0.68421340     0.21000
C1995       C  0.95798613  0.54575534  0.70667565    -0.32300
C1996       C  0.49305363  0.56443164  0.72248333     0.01700
C1997       C  0.52665624  0.60453887  0.71732633    -0.23600
C1998       C  0.53146083  0.67600975  0.62483292    -0.28200
C1999       C  0.49943808  0.65341850  0.60713082     0.07400
C2000       C  0.96532717  0.61411734  0.61352532    -0.26900
H2001       H  0.58929503  0.71100521  0.66125047     0.12100
H2002       H  0.58719490  0.67992234  0.70159974     0.13200
H2003       H  0.90262037  0.54164491  0.63035218     0.12300
H2004       H  0.89885833  0.51230103  0.67135945     0.11500
H2005       H  0.93239929  0.51448210  0.71066173     0.16900
H2006       H  0.55405813  0.61837972  0.72934233     0.12800
H2007       H  0.55757863  0.70667200  0.62044944     0.15700
H2008       H  0.94093030  0.59574754  0.60002799     0.15500
C2009       C  0.60313746  0.43710726  0.68573040    -0.17400
C2010       C  0.62153507  0.43690721  0.66337439    -0.19600
C2011       C  0.63357380  0.46997092  0.64660895     0.21100
C2012       C  0.62817500  0.50415027  0.65271927    -0.02500
C2013       C  0.61051108  0.50482774  0.67545171    -0.05600
C2014       C  0.59711935  0.47071565  0.69185471     0.21300
C2015       C  0.60461914  0.53882789  0.68127164     0.19500
C2016       C  0.61709052  0.57214121  0.66473149    -0.17100
C2017       C  0.63413743  0.57119964  0.64210565    -0.19300
C2018       C  0.63927572  0.53710676  0.63582152     0.21000
C2019       C  0.65453697  0.53509872  0.61270655    -0.32300
C2020       C  0.66038895  0.50131459  0.60636737     0.01700
C2021       C  0.65035473  0.46916795  0.62370895    -0.23600
C2022       C  0.57603495  0.46993274  0.71337765    -0.28200
C2023       C  0.56857488  0.50291718  0.71840183     0.07400
C2024       C  0.58417865  0.53781442  0.70287154    -0.26900
H2025       H  0.59306828  0.41069716  0.69805883     0.12100
H2026       H  0.62551283  0.41042297  0.65895504     0.13200
H2027       H  0.61262097  0.59837711  0.66901376     0.12300
H2028       H  0.64277120  0.59686068  0.62937377     0.11500
H2029       H  0.66106822  0.05966508  0.59951571     0.16900
H2030       H  0.65567562  0.44347965  0.61953451     0.12800
H2031       H  0.56308863  0.44268365  0.72525220     0.15700
H2032       H  0.57774959  0.56289689  0.70680105     0.15500
loop_ 
_geom_bond_atom_site_label_1 
_geom_bond_atom_site_label_2 
_geom_bond_distance 
_geom_bond_site_symmetry_2 
_ccdc_geom_bond_type 
C1            H2   1.113       .  S
C1            C7   1.529   1_545  S
C1            C6   1.533       .  S
C1         C1529   1.528   1_445  S
C3            H4   1.113       .  S
C3          C517   1.536       .  S
C3         C1024   1.529       .  S
C3          C518   1.529   1_655  S
C5         C1525   1.528       .  S
C5            C8   1.360       .  D
C5          C376   1.463       .  S
C6            C9   1.370   1_455  D
C6          C400   1.473       .  S
C7           C10   1.361       .  D
C7          C424   1.460       .  S
C8         C1019   1.529       .  S
C8          C451   1.463       .  S
C9          C511   1.536   1_545  S
C9          C472   1.467       .  S
C10         C511   1.529   1_455  S
C10         C499   1.465   1_565  S
O11          C27   1.275       .  A
O11         Zn17   2.027       .  S
C12          O28   1.270       .  A
C12          O25   1.278       .  A
C12          C68   1.469       .  S
O13          C26   1.277       .  A
O13         Cd20   2.086       .  S
O14          C32   1.279       .  A
O14         Cd23   2.090       .  S
O15          C29   1.276       .  A
O15         Cd19   2.066   1_554  S
O16          C27   1.272       .  A
O16         Cd19   2.046       .  S
Zn17         O28   1.986   1_556  S
Zn17         O30   1.988       .  S
Zn17         O22   1.933   1_556  S
O18          C29   1.279       .  A
O18         Cd23   2.101       .  S
Cd19         O21   2.084       .  S
Cd19         O22   1.982   1_556  S
Cd20         O24   2.058       .  S
Cd20         O33   2.063   1_556  S
Cd20         O22   1.984   1_556  S
O21          C31   1.277       .  A
O22         Cd23   2.001       .  S
Cd23         O25   2.084       .  S
O24          C31   1.275       .  A
C26          O30   1.271       .  A
C26          C38   1.467       .  S
C27          C79   1.465       .  S
C29         C106   1.482       .  S
C31          C97   1.469       .  S
C32          O33   1.275       .  A
C32          C86   1.479       .  S
C34         C379   1.482       .  S
C34          C35   1.409       .  A
C34          C39   1.409       .  A
C35          C36   1.396       .  A
C35          H40   1.083       .  S
C36          C58   1.466       .  S
C36          C37   1.400       .  A
C37          C38   1.402       .  A
C37          H41   1.085       .  S
C38          C39   1.396       .  A
C39          H42   1.083       .  S
O43          C59   1.274       .  A
O43         Zn49   2.011   1_554  S
C44          O60   1.278       .  A
C44          O57   1.272       .  A
C44          C95   1.466       .  S
O45          C58   1.276       .  A
O45         Cd52   2.072       .  S
O46          C64   1.277       .  A
O46         Cd55   2.085       .  S
O47          C61   1.277       .  A
O47         Cd51   2.086       .  S
O48          C59   1.277       .  A
O48         Cd51   2.082       .  S
Zn49         O60   2.039       .  S
Zn49         O62   2.005       .  S
Zn49         O54   1.928   1_556  S
O50          C61   1.276       .  A
O50         Cd55   2.066   1_554  S
Cd51         O53   2.079       .  S
Cd51         O54   1.992       .  S
Cd52         O56   2.058   1_556  S
Cd52         O65   2.046       .  S
Cd52         O54   1.981   1_556  S
O53          C63   1.278       .  A
O54         Cd55   1.976   1_554  S
Cd55         O57   2.044       .  S
O56          C63   1.274       .  A
C58          O62   1.273       .  A
C59          C70   1.473       .  S
C61          C88   1.480       .  S
C63         C104   1.475       .  S
C64          O65   1.271       .  A
C64          C77   1.465       .  S
C66         C352   1.467       .  S
C66          C67   1.401       .  A
C66          C71   1.404       .  A
C67          C68   1.392       .  A
C67          H72   1.085       .  S
C68          C69   1.406       .  A
C69          C70   1.407       .  A
C69          H73   1.084       .  S
C70          C71   1.400       .  A
C71          H74   1.084       .  S
C75         C427   1.497       .  S
C75          C80   1.414       .  A
C75         C584   1.416   1_545  A
C76          C77   1.394       .  A
C76         C583   1.416       .  A
C76          H81   1.080       .  S
C77         C586   1.394       .  A
C78          C79   1.397       .  A
C78         C585   1.394   1_545  A
C78          H82   1.085       .  S
C79          C80   1.399       .  A
C80          H83   1.081       .  S
C84         C331   1.508       .  S
C84          C85   1.417       .  A
C84        C1105   1.417       .  A
C85          C86   1.401       .  A
C85          H90   1.079       .  S
C86          C87   1.400       .  A
C87        C1104   1.401       .  A
C87          H91   1.085       .  S
C88          C89   1.403       .  A
C88        C1103   1.401       .  A
C89        C1100   1.417       .  A
C89          H92   1.080       .  S
C93         C403   1.485       .  S
C93          C94   1.411   1_655  A
C93        C1114   1.413       .  A
C94          C95   1.394       .  A
C94          H99   1.083       .  S
C95          C96   1.397   1_455  A
C96        C1113   1.399       .  A
C96         H100   1.085       .  S
C97          C98   1.403       .  A
C97        C1112   1.399       .  A
C98        C1109   1.413       .  A
C98         H101   1.083       .  S
C102        C307   1.485       .  S
C102        C103   1.405       .  A
C102        C615   1.413       .  A
C103        C104   1.392       .  A
C103        H108   1.084       .  S
C104        C105   1.402       .  A
C105        C614   1.408       .  A
C105        H109   1.084       .  S
C106        C107   1.408       .  A
C106        C613   1.408       .  A
C107        C610   1.413       .  A
C107        H110   1.083       .  S
O111        C127   1.276       .  A
O111       Zn117   2.025       .  S
C112        O128   1.279       .  A
C112        O125   1.272       .  A
C112        C168   1.466       .  S
O113        C126   1.277       .  A
O113       Cd120   2.085       .  S
O114        C132   1.276       .  A
O114       Cd123   2.086       .  S
O115        C129   1.280       .  A
O115       Cd119   2.097       .  S
O116        C127   1.278       .  A
O116       Cd119   2.095       .  S
Zn117       O128   2.045       .  S
Zn117       O130   1.997       .  S
Zn117       O122   1.931       .  S
O118        C129   1.273       .  A
O118       Cd123   2.054       .  S
Cd119       O121   2.089       .  S
Cd119       O122   2.002       .  S
Cd120       O124   2.059       .  S
Cd120       O133   2.066       .  S
Cd120       O122   1.989       .  S
O121        C131   1.279       .  A
O122       Cd123   1.984       .  S
Cd123       O125   2.041       .  S
O124        C131   1.275       .  A
C126        O130   1.272       .  A
C126        C136   1.468       .  S
C127        C197   1.486       .  S
C129        C204   1.479       .  S
C131        C186   1.473       .  S
C132        O133   1.274       .  A
C132        C177   1.472       .  S
C134        C448   1.498       .  S
C134        C135   1.416       .  A
C134        C139   1.416       .  A
C135        C136   1.396       .  A
C135        H140   1.081       .  S
C136        C137   1.395       .  A
C137        C138   1.398       .  A
C137        H141   1.085       .  S
C138        C158   1.468       .  S
C138        C139   1.401       .  A
C139        H142   1.081       .  S
O143        C159   1.280       .  A
O143       Zn149   2.066       .  S
C144        O160   1.276       .  A
C144        O157   1.278       .  A
C144        C195   1.487       .  S
O145        C158   1.277       .  A
O145       Cd152   2.081       .  S
O146        C164   1.279       .  A
O146       Cd155   2.103       .  S
O147        C161   1.272       .  A
O147       Cd151   2.045       .  S
O148        C159   1.271       .  A
O148       Cd151   2.042       .  S
Zn149       O160   2.030       .  S
Zn149       O162   2.006       .  S
Zn149       O154   1.938       .  S
O150        C161   1.279       .  A
O150       Cd155   2.084       .  S
Cd151       O153   2.082       .  S
Cd151       O154   1.992       .  S
Cd152       O156   2.061       .  S
Cd152       O165   2.069       .  S
Cd152       O154   1.990       .  S
O153        C163   1.275       .  A
O154       Cd155   2.006       .  S
Cd155       O157   2.096       .  S
O156        C163   1.274       .  A
C158        O162   1.275       .  A
C159        C179   1.473       .  S
C161        C188   1.471       .  S
C163        C170   1.471       .  S
C164        O165   1.276       .  A
C164        C206   1.483       .  S
C166        C496   1.491       .  S
C166        C167   1.413       .  A
C166        C679   1.414   1_545  A
C167        C168   1.396       .  A
C167        H172   1.082       .  S
C168        C169   1.397   1_545  A
C169        C678   1.399       .  A
C169        H173   1.085       .  S
C170        C171   1.401       .  A
C170        C677   1.399       .  A
C171        C674   1.414       .  A
C171        H174   1.082       .  S
C175        C475   1.490   1_455  S
C175        C180   1.414       .  A
C175       C1192   1.413   1_455  A
C176        C177   1.397       .  A
C176       C1191   1.413       .  A
C176        H181   1.083       .  S
C177       C1194   1.399       .  A
C178        C179   1.404       .  A
C178       C1193   1.399   1_455  A
C178        H182   1.085       .  S
C179        C180   1.401       .  A
C180        H183   1.083       .  S
C184        C283   1.471       .  S
C184        C185   1.406       .  A
C184       C1205   1.402       .  A
C185        C186   1.401       .  A
C185        H190   1.084       .  S
C186        C187   1.407       .  A
C187       C1204   1.405       .  A
C187        H191   1.084       .  S
C188        C189   1.392       .  A
C188       C1203   1.405   1_455  A
C189       C1200   1.402       .  A
C189        H192   1.084       .  S
C193        C256   1.516       .  S
C193        C194   1.421       .  A
C193        C198   1.419       .  A
C194        C195   1.406       .  A
C194        H199   1.079       .  S
C195        C196   1.403       .  A
C196        C197   1.403       .  A
C196        H200   1.084       .  S
C197        C198   1.404       .  A
C198        H201   1.079       .  S
C202        C235   1.490       .  S
C202        C207   1.414       .  A
C202        C711   1.410       .  A
C203        C204   1.394       .  A
C203        C710   1.410   1_545  A
C203        H208   1.083       .  S
C204        C713   1.404   1_545  A
C205        C206   1.406       .  A
C205        C712   1.404       .  A
C205        H209   1.084       .  S
C206        C207   1.407       .  A
C207        H210   1.083       .  S
C211        H212   1.111       .  S
C211        C725   1.527       .  S
C211        C724   1.535       .  S
C211       C1231   1.541   1_565  S
C213        H722   1.111       .  S
C213        C218   1.529       .  S
C213       C1743   1.532   1_455  S
C213       C1744   1.540   1_545  S
H214        C721   1.111       .  S
C215       C1227   1.541   1_445  S
C215        C218   1.371       .  D
C215        C355   1.476       .  S
C216        C719   1.535       .  S
C216        C219   1.365       .  D
C216        C304   1.473       .  S
C217        C719   1.527       .  S
C217        C220   1.367       .  D
C217        C328   1.474       .  S
C218        C259   1.477       .  S
C219       C1737   1.532       .  S
C219        C232   1.472       .  S
C220       C1737   1.540       .  S
C220        C280   1.472       .  S
C221        C222   1.393       .  A
C221        C226   1.402       .  A
C221        H237   1.084       .  S
C222        C223   1.400       .  A
C222        H238   1.084       .  S
C223        C233   1.393       .  A
C223        C732   1.411       .  A
C224        C230   1.412       .  A
C224        C225   1.409       .  A
C224        C731   1.411       .  A
C225        C227   1.412       .  A
C225        C734   1.409       .  A
C226        C234   1.393       .  A
C226        C733   1.409       .  A
C227        C236   1.408       .  A
C227        C228   1.405       .  A
C228        C229   1.402       .  A
C228        H239   1.083       .  S
C229        C230   1.404       .  A
C229        H240   1.083       .  S
C230        C231   1.406       .  A
C231        C232   1.405       .  A
C231        H241   1.084       .  S
C232        C741   1.399       .  A
C233        C740   1.399       .  A
C233        H242   1.084       .  S
C234        C743   1.409   1_545  A
C234        H243   1.083       .  S
C235        C236   1.410       .  A
C235        C742   1.409       .  A
C236        H244   1.083       .  S
C245        C246   1.401       .  A
C245        C250   1.403       .  A
C245        H261   1.084       .  S
C246        C247   1.406       .  A
C246        H262   1.083       .  S
C247        C257   1.407       .  A
C247        C248   1.409       .  A
C248        C254   1.407       .  A
C248        C249   1.414       .  A
C249        C251   1.412       .  A
C249        C250   1.411       .  A
C250        C258   1.405       .  A
C251        C260   1.403       .  A
C251        C252   1.402       .  A
C252        C253   1.399       .  A
C252        H263   1.084       .  S
C253        C254   1.405       .  A
C253        H264   1.084       .  S
C254        C255   1.403       .  A
C255        C256   1.417       .  A
C255        H265   1.079       .  S
C256        C257   1.417       .  A
C257        H266   1.080       .  S
C258        C259   1.404       .  A
C258        H267   1.084       .  S
C259        C260   1.402       .  A
C260        H268   1.085       .  S
C269        C270   1.399       .  A
C269        C274   1.403       .  A
C269        H285   1.083       .  S
C270        C271   1.403       .  A
C270        H286   1.084       .  S
C271        C281   1.401       .  A
C271        C272   1.412       .  A
C272        C273   1.405       .  A
C272       C1294   1.410       .  A
C273        C274   1.413       .  A
C273       C1291   1.410       .  A
C274        C282   1.402       .  A
C275        C284   1.390       .  A
C275        C276   1.401       .  A
C275       C1289   1.410       .  A
C276        C277   1.392       .  A
C276        H287   1.084       .  S
C277        C278   1.401       .  A
C277        H288   1.084       .  S
C278        C279   1.390       .  A
C278       C1288   1.410       .  A
C279       C1296   1.400       .  A
C279        H289   1.079       .  S
C280        C281   1.404       .  A
C280       C1295   1.400       .  A
C281        H290   1.082       .  S
C282        C283   1.404       .  A
C282        H291   1.084       .  S
C283       C1300   1.404       .  A
C284       C1299   1.404       .  A
C284        H292   1.085       .  S
C293        C294   1.402       .  A
C293        C298   1.405       .  A
C293        H309   1.083       .  S
C294        C295   1.405       .  A
C294        H310   1.083       .  S
C295        C305   1.406       .  A
C295        C804   1.412   1_545  A
C296        C302   1.411       .  A
C296        C297   1.408       .  A
C296        C803   1.412       .  A
C297        C299   1.408       .  A
C297        C806   1.413       .  A
C298        C306   1.408       .  A
C298        C805   1.413   1_545  A
C299        C308   1.390       .  A
C299        C300   1.402       .  A
C300        C301   1.392       .  A
C300        H311   1.084       .  S
C301        C302   1.400       .  A
C301        H312   1.084       .  S
C302        C303   1.391       .  A
C303        C304   1.400       .  A
C303        H313   1.084       .  S
C304        C813   1.405       .  A
C305        C812   1.405   1_545  A
C305        H314   1.084       .  S
C306        C815   1.408   1_545  A
C306        H315   1.084       .  S
C307        C308   1.408       .  A
C307        C814   1.408       .  A
C308        H316   1.084       .  S
C317        C318   1.398       .  A
C317        C322   1.404       .  A
C317        H333   1.084       .  S
C318        C319   1.403       .  A
C318        H334   1.084       .  S
C319        C329   1.401       .  A
C319       C1336   1.411       .  A
C320        C326   1.412       .  A
C320        C321   1.412       .  A
C320       C1335   1.411       .  A
C321        C323   1.408       .  A
C321       C1338   1.408       .  A
C322        C330   1.402       .  A
C322       C1337   1.408       .  A
C323        C332   1.403       .  A
C323        C324   1.405       .  A
C324        C325   1.400       .  A
C324        H335   1.084       .  S
C325        C326   1.403       .  A
C325        H336   1.084       .  S
C326        C327   1.404       .  A
C327        C328   1.403       .  A
C327        H337   1.084       .  S
C328       C1345   1.402       .  A
C329       C1344   1.402   1_455  A
C329        H338   1.085       .  S
C330       C1347   1.415       .  A
C330        H339   1.080       .  S
C331        C332   1.415       .  A
C331       C1346   1.415       .  A
C332        H340   1.080       .  S
C341        C342   1.398       .  A
C341        C346   1.403       .  A
C341        H357   1.084       .  S
C342        C343   1.403       .  A
C342        H358   1.084       .  S
C343        C353   1.400       .  A
C343        C344   1.412       .  A
C344        C350   1.411       .  A
C344        C345   1.405       .  A
C345        C347   1.409       .  A
C345        C346   1.412       .  A
C346        C354   1.401       .  A
C347        C356   1.390       .  A
C347        C348   1.402       .  A
C348        C349   1.393       .  A
C348        H359   1.084       .  S
C349        C350   1.402       .  A
C349        H360   1.084       .  S
C350        C351   1.392       .  A
C351        C352   1.403       .  A
C351        H361   1.085       .  S
C352        C353   1.402       .  A
C353        H362   1.084       .  S
C354        C355   1.403       .  A
C354        H363   1.081       .  S
C355        C356   1.403       .  A
C356        H364   1.079       .  S
C365        C366   1.398       .  A
C365        C370   1.404       .  A
C365        H381   1.084       .  S
C366        C367   1.402       .  A
C366        H382   1.084       .  S
C367        C377   1.403       .  A
C367        C368   1.415       .  A
C368        C374   1.410       .  A
C368        C369   1.407       .  A
C369        C371   1.412       .  A
C369        C370   1.409       .  A
C370        C378   1.398       .  A
C371        C380   1.398       .  A
C371        C372   1.402       .  A
C372        C373   1.395       .  A
C372        H383   1.084       .  S
C373        C374   1.402       .  A
C373        H384   1.084       .  S
C374        C375   1.393       .  A
C375        C376   1.401       .  A
C375        H385   1.085       .  S
C376        C377   1.399       .  A
C377        H386   1.084       .  S
C378        C379   1.408       .  A
C378        H387   1.083       .  S
C379        C380   1.406       .  A
C380        H388   1.083       .  S
C389        C390   1.401       .  A
C389        C394   1.405       .  A
C389        H405   1.083       .  S
C390        C391   1.403       .  A
C390        H406   1.083       .  S
C391        C401   1.408       .  A
C391       C1408   1.414       .  A
C392        C398   1.409       .  A
C392        C393   1.409       .  A
C392       C1407   1.414   1_455  A
C393        C395   1.411       .  A
C393       C1410   1.410   1_455  A
C394        C402   1.405       .  A
C394       C1409   1.410       .  A
C395        C404   1.396       .  A
C395        C396   1.402       .  A
C396        C397   1.394       .  A
C396        H407   1.084       .  S
C397        C398   1.402       .  A
C397        H408   1.084       .  S
C398        C399   1.392       .  A
C399        C400   1.403       .  A
C399        H409   1.083       .  S
C400       C1417   1.403   1_455  A
C401       C1416   1.403       .  A
C401        H410   1.084       .  S
C402       C1419   1.410       .  A
C402        H411   1.084       .  S
C403        C404   1.406   1_655  A
C403       C1418   1.410       .  A
C404        H412   1.084       .  S
C413        C414   1.400       .  A
C413        C418   1.405       .  A
C413        H429   1.084       .  S
C414        C415   1.403       .  A
C414        H430   1.084       .  S
C415        C425   1.403       .  A
C415        C416   1.413   1_545  A
C416        C417   1.407   1_565  A
C416        C930   1.411       .  A
C417        C418   1.409       .  A
C417        C927   1.408   1_545  A
C418        C426   1.403       .  A
C419        C428   1.395       .  A
C419        C420   1.402       .  A
C419        C925   1.408       .  A
C420        C421   1.394       .  A
C420        H431   1.084       .  S
C421        C422   1.401       .  A
C421        H432   1.084       .  S
C422        C423   1.393       .  A
C422        C924   1.411       .  A
C423        C932   1.399       .  A
C423        H433   1.086       .  S
C424        C425   1.402   1_565  A
C424        C931   1.399       .  A
C425        H434   1.084       .  S
C426        C427   1.415       .  A
C426        H435   1.081       .  S
C427        C936   1.409   1_545  A
C428        C935   1.409       .  A
C428        H436   1.081       .  S
C437        C438   1.400       .  A
C437        C442   1.403       .  A
C437        H453   1.083       .  S
C438        C439   1.405       .  A
C438        H454   1.083       .  S
C439        C449   1.404       .  A
C439        C440   1.409       .  A
C440        C446   1.409       .  A
C440        C441   1.409       .  A
C441        C443   1.411       .  A
C441        C442   1.414       .  A
C442        C450   1.404       .  A
C443        C452   1.394       .  A
C443        C444   1.401       .  A
C444        C445   1.394       .  A
C444        H455   1.084       .  S
C445        C446   1.403       .  A
C445        H456   1.084       .  S
C446        C447   1.397       .  A
C447        C448   1.410       .  A
C447        H457   1.081       .  S
C448        C449   1.414       .  A
C449        H458   1.082       .  S
C450        C451   1.401       .  A
C450        H459   1.084       .  S
C451        C452   1.399       .  A
C452        H460   1.086       .  S
C461        C462   1.401       .  A
C461        C466   1.405       .  A
C461        H477   1.083       .  S
C462        C463   1.403       .  A
C462        H478   1.083       .  S
C463        C473   1.406       .  A
C463        C464   1.414   1_455  A
C464        C465   1.409       .  A
C464       C1486   1.410       .  A
C465        C466   1.410   1_655  A
C465       C1483   1.411       .  A
C466        C474   1.404       .  A
C467        C476   1.398       .  A
C467        C468   1.402       .  A
C467       C1481   1.411       .  A
C468        C469   1.395       .  A
C468        H479   1.084       .  S
C469        C470   1.402       .  A
C469        H480   1.084       .  S
C470        C471   1.393       .  A
C470       C1480   1.410       .  A
C471       C1488   1.402       .  A
C471        H481   1.085       .  S
C472        C473   1.402   1_655  A
C472       C1487   1.402       .  A
C473        H482   1.084       .  S
C474        C475   1.411   1_455  A
C474        H483   1.083       .  S
C475       C1492   1.408       .  A
C476       C1491   1.408       .  A
C476        H484   1.083       .  S
C485        C486   1.400       .  A
C485        C490   1.403       .  A
C485        H501   1.084       .  S
C486        C487   1.405       .  A
C486        H502   1.084       .  S
C487        C497   1.402       .  A
C487        C488   1.409   1_565  A
C488        C494   1.411       .  A
C488        C489   1.409       .  A
C489        C491   1.410       .  A
C489        C490   1.414   1_545  A
C490        C498   1.405       .  A
C491        C500   1.393       .  A
C491        C492   1.402       .  A
C492        C493   1.395       .  A
C492        H503   1.084       .  S
C493        C494   1.403       .  A
C493        H504   1.084       .  S
C494        C495   1.398       .  A
C495        C496   1.408       .  A
C495       H1013   1.083       .  S
C496        C497   1.411   1_545  A
C497        H506   1.083       .  S
C498        C499   1.401   1_565  A
C498        H507   1.084       .  S
C499        C500   1.400       .  A
C500        H508   1.085       .  S
H505       C1003   1.083       .  S
C509        H510   1.113       .  S
C509        C515   1.529       .  S
C509        C514   1.533       .  S
C509       C1021   1.528   1_455  S
C511        H512   1.113       .  S
C511       C1532   1.529       .  S
C513       C1017   1.528   1_565  S
C513        C516   1.360       .  D
C513        C884   1.463       .  S
C514        C517   1.369   1_455  D
C514        C908   1.473       .  S
C515        C518   1.361       .  D
C515        C932   1.460       .  S
C516       C1527   1.529       .  S
C516        C959   1.463       .  S
C517        C980   1.467       .  S
C518       C1007   1.465       .  S
O519        C535   1.275       .  A
O519       Zn525   2.027       .  S
C520        O536   1.270       .  A
C520        O533   1.278       .  A
C520        C576   1.469       .  S
O521        C534   1.277       .  A
O521       Cd528   2.085       .  S
O522        C540   1.279       .  A
O522       Cd531   2.090       .  S
O523        C537   1.276       .  A
O523       Cd527   2.065   1_554  S
O524        C535   1.272       .  A
O524       Cd527   2.046       .  S
Zn525       O536   1.986   1_556  S
Zn525       O538   1.988       .  S
Zn525       O530   1.933   1_556  S
O526        C537   1.279       .  A
O526       Cd531   2.101       .  S
Cd527       O529   2.084       .  S
Cd527       O530   1.982   1_556  S
Cd528       O532   2.058       .  S
Cd528       O541   2.063   1_556  S
Cd528       O530   1.984   1_556  S
O529        C539   1.277       .  A
O530       Cd531   2.001       .  S
Cd531       O533   2.084       .  S
O532        C539   1.275       .  A
C534        O538   1.271       .  A
C534        C546   1.467       .  S
C535        C587   1.465       .  S
C537        C614   1.482       .  S
C539        C605   1.469       .  S
C540        O541   1.275       .  A
C540        C594   1.479       .  S
C542        C887   1.482       .  S
C542        C543   1.409       .  A
C542        C547   1.409       .  A
C543        C544   1.396       .  A
C543        H548   1.083       .  S
C544        C566   1.466       .  S
C544        C545   1.400       .  A
C545        C546   1.402       .  A
C545        H549   1.085       .  S
C546        C547   1.396       .  A
C547        H550   1.083       .  S
O551        C567   1.274       .  A
O551       Zn557   2.011   1_554  S
C552        O568   1.278       .  A
C552        O565   1.272       .  A
C552        C603   1.466       .  S
O553        C566   1.276       .  A
O553       Cd560   2.072       .  S
O554        C572   1.277       .  A
O554       Cd563   2.085       .  S
O555        C569   1.277       .  A
O555       Cd559   2.086       .  S
O556        C567   1.277       .  A
O556       Cd559   2.082       .  S
Zn557       O568   2.039       .  S
Zn557       O570   2.005       .  S
Zn557       O562   1.928   1_556  S
O558        C569   1.276       .  A
O558       Cd563   2.066   1_554  S
Cd559       O561   2.079       .  S
Cd559       O562   1.992       .  S
Cd560       O564   2.058   1_556  S
Cd560       O573   2.046       .  S
Cd560       O562   1.981   1_556  S
O561        C571   1.278       .  A
O562       Cd563   1.976   1_554  S
Cd563       O565   2.044       .  S
O564        C571   1.274       .  A
C566        O570   1.273       .  A
C567        C578   1.473       .  S
C569        C596   1.480       .  S
C571        C612   1.475       .  S
C572        O573   1.271       .  A
C572        C585   1.465       .  S
C574        C860   1.467       .  S
C574        C575   1.401       .  A
C574        C579   1.404       .  A
C575        C576   1.392       .  A
C575        H580   1.085       .  S
C576        C577   1.406       .  A
C577        C578   1.407       .  A
C577        H581   1.084       .  S
C578        C579   1.400       .  A
C579        H582   1.084       .  S
C583        C935   1.497       .  S
C583        C588   1.414       .  A
C584        C585   1.394       .  A
C584        H589   1.080       .  S
C586        C587   1.397       .  A
C586        H590   1.085       .  S
C587        C588   1.399       .  A
C588        H591   1.081       .  S
C592        C839   1.508       .  S
C592        C593   1.417       .  A
C592       C1613   1.417       .  A
C593        C594   1.401       .  A
C593        H598   1.079       .  S
C594        C595   1.400       .  A
C595       C1612   1.401       .  A
C595        H599   1.085       .  S
C596       C1611   1.401       .  A
C596        C597   1.403       .  A
C597       C1608   1.417       .  A
C597        H600   1.080       .  S
C601        C911   1.485       .  S
C601        C602   1.411   1_655  A
C601       C1622   1.413       .  A
C602        C603   1.394       .  A
C602        H607   1.083       .  S
C603        C604   1.397   1_455  A
C604       C1621   1.399       .  A
C604        H608   1.085       .  S
C605       C1620   1.399       .  A
C605        C606   1.403       .  A
C606       C1617   1.413       .  A
C606        H609   1.083       .  S
C610        C815   1.485   1_545  S
C610        C611   1.405   1_545  A
C611        C612   1.392       .  A
C611        H616   1.084       .  S
C612        C613   1.402   1_565  A
C613        H617   1.084       .  S
C614        C615   1.408       .  A
C615        H618   1.083       .  S
O619        C635   1.276       .  A
O619       Zn625   2.025       .  S
C620        O636   1.279       .  A
C620        O633   1.272       .  A
C620        C676   1.466       .  S
O621        C634   1.277       .  A
O621       Cd628   2.085       .  S
O622        C640   1.276       .  A
O622       Cd631   2.085       .  S
O623        C637   1.280       .  A
O623       Cd627   2.097       .  S
O624        C635   1.278       .  A
O624       Cd627   2.095       .  S
Zn625       O636   2.045       .  S
Zn625       O638   1.997       .  S
Zn625       O630   1.931       .  S
O626        C637   1.273       .  A
O626       Cd631   2.054       .  S
Cd627       O629   2.089       .  S
Cd627       O630   2.002       .  S
Cd628       O632   2.058       .  S
Cd628       O641   2.066       .  S
Cd628       O630   1.989       .  S
O629        C639   1.279       .  A
O630       Cd631   1.984       .  S
Cd631       O633   2.041       .  S
O632        C639   1.275       .  A
C634        O638   1.272       .  A
C634        C644   1.468       .  S
C635        C705   1.486       .  S
C637        C712   1.479       .  S
C639        C694   1.473       .  S
C640        O641   1.274       .  A
C640        C685   1.472       .  S
C642        C956   1.498       .  S
C642        C643   1.416       .  A
C642        C647   1.416       .  A
C643        C644   1.396       .  A
C643        H648   1.081       .  S
C644        C645   1.395       .  A
C645        C646   1.398       .  A
C645        H649   1.085       .  S
C646        C666   1.468       .  S
C646        C647   1.401       .  A
C647        H650   1.081       .  S
O651        C667   1.280       .  A
O651       Zn657   2.066       .  S
C652        O668   1.276       .  A
C652        O665   1.278       .  A
C652        C703   1.487       .  S
O653        C666   1.277       .  A
O653       Cd660   2.081       .  S
O654        C672   1.279       .  A
O654       Cd663   2.103       .  S
O655        C669   1.272       .  A
O655       Cd659   2.045       .  S
O656        C667   1.271       .  A
O656       Cd659   2.042       .  S
Zn657       O668   2.030       .  S
Zn657       O670   2.006       .  S
Zn657       O662   1.938       .  S
O658        C669   1.279       .  A
O658       Cd663   2.084       .  S
Cd659       O661   2.082       .  S
Cd659       O662   1.992       .  S
Cd660       O664   2.061       .  S
Cd660       O673   2.069       .  S
Cd660       O662   1.990       .  S
O661        C671   1.275       .  A
O662       Cd663   2.006       .  S
Cd663       O665   2.096       .  S
O664        C671   1.274       .  A
C666        O670   1.275       .  A
C667        C687   1.473       .  S
C669        C696   1.471       .  S
C671        C678   1.471       .  S
C672        O673   1.276       .  A
C672        C714   1.483       .  S
C674       C1004   1.491       .  S
C674        C675   1.413       .  A
C675        C676   1.396       .  A
C675        H680   1.082       .  S
C676        C677   1.397       .  A
C677        H681   1.085       .  S
C678        C679   1.401       .  A
C679        H682   1.082       .  S
C683        C983   1.490   1_455  S
C683       C1700   1.413   1_455  A
C683        C688   1.414       .  A
C684       C1699   1.413       .  A
C684        C685   1.397       .  A
C684        H689   1.083       .  S
C685       C1702   1.399       .  A
C686       C1701   1.399   1_455  A
C686        C687   1.404       .  A
C686        H690   1.085       .  S
C687        C688   1.401       .  A
C688        H691   1.083       .  S
C692        C791   1.471       .  S
C692        C693   1.406       .  A
C692       C1713   1.402       .  A
C693        C694   1.401       .  A
C693        H698   1.084       .  S
C694        C695   1.407       .  A
C695       C1712   1.405       .  A
C695        H699   1.084       .  S
C696       C1711   1.405   1_455  A
C696        C697   1.392       .  A
C697       C1708   1.402       .  A
C697        H700   1.084       .  S
C701        C764   1.516       .  S
C701        C702   1.421       .  A
C701        C706   1.419       .  A
C702        C703   1.406       .  A
C702        H707   1.079       .  S
C703        C704   1.403       .  A
C704        C705   1.403       .  A
C704        H708   1.084       .  S
C705        C706   1.404       .  A
C706        H709   1.079       .  S
C710        C743   1.490       .  S
C710        C715   1.414       .  A
C711        C712   1.394       .  A
C711        H716   1.083       .  S
C713        C714   1.406       .  A
C713        H717   1.084       .  S
C714        C715   1.407       .  A
C715        H718   1.083       .  S
C719        H720   1.111       .  S
C719       C1739   1.541       .  S
C721       C1235   1.532   1_455  S
C721        C726   1.529       .  S
C721       C1236   1.540       .  S
C723       C1735   1.541   1_455  S
C723        C726   1.371       .  D
C723        C863   1.476       .  S
C724        C727   1.365   1_565  D
C724        C812   1.473       .  S
C725        C728   1.367       .  D
C725        C836   1.474       .  S
C726        C767   1.477       .  S
C727       C1229   1.532       .  S
C727        C740   1.472       .  S
C728       C1229   1.540   1_565  S
C728        C788   1.472       .  S
C729        C730   1.393       .  A
C729        C734   1.402       .  A
C729        H745   1.084       .  S
C730        C731   1.400       .  A
C730        H746   1.084       .  S
C731        C741   1.393       .  A
C732        C738   1.412   1_545  A
C732        C733   1.409       .  A
C733        C735   1.412   1_545  A
C734        C742   1.393       .  A
C735        C744   1.408       .  A
C735        C736   1.405       .  A
C736        C737   1.402       .  A
C736        H747   1.083       .  S
C737        C738   1.404       .  A
C737        H748   1.083       .  S
C738        C739   1.406       .  A
C739        C740   1.405   1_565  A
C739        H749   1.084       .  S
C741        H750   1.084       .  S
C742        H751   1.083       .  S
C743        C744   1.410       .  A
C744        H752   1.083       .  S
C753        C754   1.401       .  A
C753        C758   1.403       .  A
C753        H769   1.084       .  S
C754        C755   1.406       .  A
C754        H770   1.083       .  S
C755        C765   1.407       .  A
C755        C756   1.409       .  A
C756        C762   1.407       .  A
C756        C757   1.414       .  A
C757        C759   1.412       .  A
C757        C758   1.411       .  A
C758        C766   1.405       .  A
C759        C768   1.403       .  A
C759        C760   1.402       .  A
C760        C761   1.399       .  A
C760        H771   1.084       .  S
C761        C762   1.405       .  A
C761        H772   1.084       .  S
C762        C763   1.403       .  A
C763        C764   1.417       .  A
C763        H773   1.079       .  S
C764        C765   1.417       .  A
C765        H774   1.080       .  S
C766        C767   1.404       .  A
C766        H775   1.084       .  S
C767        C768   1.402       .  A
C768        H776   1.085       .  S
C777        C778   1.399       .  A
C777        C782   1.403       .  A
C777        H793   1.083       .  S
C778        C779   1.403       .  A
C778        H794   1.084       .  S
C779        C789   1.401       .  A
C779        C780   1.412       .  A
C780       C1802   1.410       .  A
C780        C781   1.405       .  A
C781       C1799   1.410       .  A
C781        C782   1.413       .  A
C782        C790   1.402       .  A
C783       C1797   1.410       .  A
C783        C792   1.390       .  A
C783        C784   1.401       .  A
C784        C785   1.392       .  A
C784        H795   1.084       .  S
C785        C786   1.401       .  A
C785        H796   1.084       .  S
C786       C1796   1.410       .  A
C786        C787   1.390       .  A
C787       C1804   1.400       .  A
C787        H797   1.079       .  S
C788       C1803   1.400       .  A
C788        C789   1.404       .  A
C789        H798   1.082       .  S
C790        C791   1.404       .  A
C790        H799   1.084       .  S
C791       C1808   1.404       .  A
C792       C1807   1.404       .  A
C792        H800   1.085       .  S
C801        C802   1.402       .  A
C801        C806   1.405       .  A
C801        H817   1.083       .  S
C802        C803   1.405       .  A
C802        H818   1.083       .  S
C803        C813   1.406       .  A
C804        C810   1.411       .  A
C804        C805   1.408       .  A
C805        C807   1.408       .  A
C806        C814   1.408       .  A
C807        C816   1.390       .  A
C807        C808   1.402       .  A
C808        C809   1.392       .  A
C808        H819   1.084       .  S
C809        C810   1.400       .  A
C809        H820   1.084       .  S
C810        C811   1.391       .  A
C811        C812   1.400       .  A
C811        H821   1.084       .  S
C813        H822   1.084       .  S
C814        H823   1.084       .  S
C815        C816   1.408       .  A
C816        H824   1.084       .  S
C825        C826   1.398       .  A
C825        C830   1.404       .  A
C825        H841   1.084       .  S
C826        C827   1.403       .  A
C826        H842   1.084       .  S
C827        C837   1.401       .  A
C827       C1844   1.411       .  A
C828       C1843   1.411       .  A
C828        C834   1.412       .  A
C828        C829   1.412       .  A
C829        C831   1.408       .  A
C829       C1846   1.408       .  A
C830       C1845   1.408       .  A
C830        C838   1.402       .  A
C831        C840   1.403       .  A
C831        C832   1.405       .  A
C832        C833   1.400       .  A
C832        H843   1.084       .  S
C833        C834   1.403       .  A
C833        H844   1.084       .  S
C834        C835   1.404       .  A
C835        C836   1.403       .  A
C835        H845   1.084       .  S
C836       C1853   1.402       .  A
C837       C1852   1.402   1_455  A
C837        H846   1.085       .  S
C838       C1855   1.415       .  A
C838        H847   1.080       .  S
C839       C1854   1.415       .  A
C839        C840   1.415       .  A
C840        H848   1.080       .  S
C849        C850   1.398       .  A
C849        C854   1.403       .  A
C849        H865   1.084       .  S
C850        C851   1.403       .  A
C850        H866   1.084       .  S
C851        C861   1.400       .  A
C851        C852   1.412       .  A
C852        C858   1.411       .  A
C852        C853   1.405       .  A
C853        C855   1.409       .  A
C853        C854   1.412       .  A
C854        C862   1.401       .  A
C855        C864   1.390       .  A
C855        C856   1.402       .  A
C856        C857   1.393       .  A
C856        H867   1.084       .  S
C857        C858   1.402       .  A
C857        H868   1.084       .  S
C858        C859   1.392       .  A
C859        C860   1.403       .  A
C859        H869   1.085       .  S
C860        C861   1.402       .  A
C861        H870   1.084       .  S
C862        C863   1.403       .  A
C862        H871   1.081       .  S
C863        C864   1.403       .  A
C864        H872   1.079       .  S
C873        C874   1.398       .  A
C873        C878   1.404       .  A
C873        H889   1.084       .  S
C874        C875   1.402       .  A
C874        H890   1.084       .  S
C875        C885   1.403       .  A
C875        C876   1.415       .  A
C876        C882   1.410       .  A
C876        C877   1.407       .  A
C877        C879   1.412       .  A
C877        C878   1.409       .  A
C878        C886   1.398       .  A
C879        C888   1.398       .  A
C879        C880   1.402       .  A
C880        C881   1.395       .  A
C880        H891   1.084       .  S
C881        C882   1.402       .  A
C881        H892   1.084       .  S
C882        C883   1.393       .  A
C883        C884   1.401       .  A
C883        H893   1.085       .  S
C884        C885   1.399       .  A
C885        H894   1.084       .  S
C886        C887   1.408       .  A
C886        H895   1.083       .  S
C887        C888   1.406       .  A
C888        H896   1.083       .  S
C897        C898   1.401       .  A
C897        C902   1.405       .  A
C897        H913   1.083       .  S
C898        C899   1.403       .  A
C898        H914   1.083       .  S
C899        C909   1.408       .  A
C899       C1916   1.414       .  A
C900       C1915   1.414   1_455  A
C900        C906   1.409       .  A
C900        C901   1.409       .  A
C901        C903   1.411       .  A
C901       C1918   1.410   1_455  A
C902       C1917   1.410       .  A
C902        C910   1.405       .  A
C903        C912   1.396       .  A
C903        C904   1.402       .  A
C904        C905   1.394       .  A
C904        H915   1.084       .  S
C905        C906   1.402       .  A
C905        H916   1.084       .  S
C906        C907   1.392       .  A
C907        C908   1.403       .  A
C907        H917   1.083       .  S
C908       C1925   1.403   1_455  A
C909       C1924   1.403       .  A
C909        H918   1.084       .  S
C910       C1927   1.410       .  A
C910        H919   1.084       .  S
C911       C1926   1.410       .  A
C911        C912   1.406   1_655  A
C912        H920   1.084       .  S
C921        C922   1.400       .  A
C921        C926   1.405       .  A
C921        H937   1.084       .  S
C922        C923   1.403       .  A
C922        H938   1.084       .  S
C923        C933   1.403       .  A
C923        C924   1.413       .  A
C924        C925   1.407       .  A
C925        C926   1.409       .  A
C926        C934   1.403       .  A
C927        C936   1.395       .  A
C927        C928   1.402       .  A
C928        C929   1.394       .  A
C928        H939   1.084       .  S
C929        C930   1.401       .  A
C929        H940   1.084       .  S
C930        C931   1.393       .  A
C931        H941   1.086       .  S
C932        C933   1.402       .  A
C933        H942   1.084       .  S
C934        C935   1.415       .  A
C934        H943   1.081       .  S
C936        H944   1.081       .  S
C945        C946   1.400       .  A
C945        C950   1.403       .  A
C945        H961   1.083       .  S
C946        C947   1.405       .  A
C946        H962   1.083       .  S
C947        C957   1.404       .  A
C947        C948   1.409       .  A
C948        C954   1.409       .  A
C948        C949   1.409       .  A
C949        C951   1.411       .  A
C949        C950   1.414       .  A
C950        C958   1.404       .  A
C951        C960   1.394       .  A
C951        C952   1.401       .  A
C952        C953   1.394       .  A
C952        H963   1.084       .  S
C953        C954   1.403       .  A
C953        H964   1.084       .  S
C954        C955   1.397       .  A
C955        C956   1.410       .  A
C955        H965   1.081       .  S
C956        C957   1.414       .  A
C957        H966   1.082       .  S
C958        C959   1.401       .  A
C958        H967   1.084       .  S
C959        C960   1.399       .  A
C960        H968   1.086       .  S
C969        C970   1.401       .  A
C969        C974   1.405       .  A
C969        H985   1.083       .  S
C970        C971   1.403       .  A
C970        H986   1.083       .  S
C971        C981   1.406       .  A
C971        C972   1.414   1_455  A
C972       C1994   1.410       .  A
C972        C973   1.409       .  A
C973       C1991   1.411       .  A
C973        C974   1.410   1_655  A
C974        C982   1.404       .  A
C975       C1989   1.411       .  A
C975        C984   1.398       .  A
C975        C976   1.402       .  A
C976        C977   1.395       .  A
C976        H987   1.084       .  S
C977        C978   1.402       .  A
C977        H988   1.084       .  S
C978       C1988   1.410       .  A
C978        C979   1.393       .  A
C979       C1996   1.402       .  A
C979        H989   1.085       .  S
C980       C1995   1.402       .  A
C980        C981   1.402   1_655  A
C981        H990   1.084       .  S
C982        C983   1.411   1_455  A
C982        H991   1.083       .  S
C983       C2000   1.408       .  A
C984       C1999   1.408       .  A
C984        H992   1.083       .  S
C993        C994   1.400       .  A
C993        C998   1.403       .  A
C993       H1009   1.084       .  S
C994        C995   1.405       .  A
C994       H1010   1.084       .  S
C995       C1005   1.402       .  A
C995        C996   1.409       .  A
C996       C1002   1.411       .  A
C996        C997   1.409       .  A
C997        C999   1.410       .  A
C997        C998   1.414       .  A
C998       C1006   1.405       .  A
C999       C1008   1.393       .  A
C999       C1000   1.402       .  A
C1000      C1001   1.395       .  A
C1000      H1011   1.084       .  S
C1001      C1002   1.403       .  A
C1001      H1012   1.084       .  S
C1002      C1003   1.398       .  A
C1003      C1004   1.408       .  A
C1004      C1005   1.411       .  A
C1005      H1014   1.083       .  S
C1006      C1007   1.401       .  A
C1006      H1015   1.084       .  S
C1007      C1008   1.400       .  A
C1008      H1016   1.085       .  S
C1017      H1018   1.113       .  S
C1017      C1023   1.529   1_545  S
C1017      C1022   1.533       .  S
C1019      H1020   1.113       .  S
C1019      C1533   1.536       .  S
C1019      C1534   1.529       .  S
C1021      C1024   1.360       .  D
C1021      C1392   1.463       .  S
C1022      C1025   1.370       .  D
C1022      C1416   1.473       .  S
C1023      C1026   1.361       .  D
C1023      C1440   1.460       .  S
C1024      C1467   1.463       .  S
C1025      C1527   1.536   1_545  S
C1025      C1488   1.467       .  S
C1026      C1527   1.529       .  S
C1026      C1515   1.465   1_565  S
O1027      C1043   1.275       .  A
O1027     Zn1033   2.027       .  S
C1028      O1044   1.270       .  A
C1028      O1041   1.278       .  A
C1028      C1084   1.469       .  S
O1029      C1042   1.277       .  A
O1029     Cd1036   2.086       .  S
O1030      C1048   1.279       .  A
O1030     Cd1039   2.090       .  S
O1031      C1045   1.276       .  A
O1031     Cd1035   2.066   1_554  S
O1032      C1043   1.272       .  A
O1032     Cd1035   2.046       .  S
Zn1033     O1044   1.986   1_556  S
Zn1033     O1046   1.988       .  S
Zn1033     O1038   1.933   1_556  S
O1034      C1045   1.279       .  A
O1034     Cd1039   2.101       .  S
Cd1035     O1037   2.084       .  S
Cd1035     O1038   1.982   1_556  S
Cd1036     O1040   2.058       .  S
Cd1036     O1049   2.063   1_556  S
Cd1036     O1038   1.984   1_556  S
O1037      C1047   1.277       .  A
O1038     Cd1039   2.001       .  S
Cd1039     O1041   2.084       .  S
O1040      C1047   1.275       .  A
C1042      O1046   1.271       .  A
C1042      C1054   1.467       .  S
C1043      C1095   1.465       .  S
C1045      C1122   1.482       .  S
C1047      C1113   1.469       .  S
C1048      O1049   1.275       .  A
C1048      C1102   1.479       .  S
C1050      C1395   1.482       .  S
C1050      C1051   1.409       .  A
C1050      C1055   1.409       .  A
C1051      C1052   1.396       .  A
C1051      H1056   1.083       .  S
C1052      C1074   1.466       .  S
C1052      C1053   1.400       .  A
C1053      C1054   1.402       .  A
C1053      H1057   1.085       .  S
C1054      C1055   1.396       .  A
C1055      H1058   1.083       .  S
O1059      C1075   1.274       .  A
O1059     Zn1065   2.011   1_554  S
C1060      O1076   1.278       .  A
C1060      O1073   1.272       .  A
C1060      C1111   1.466       .  S
O1061      C1074   1.276       .  A
O1061     Cd1068   2.072       .  S
O1062      C1080   1.277       .  A
O1062     Cd1071   2.085       .  S
O1063      C1077   1.277       .  A
O1063     Cd1067   2.086       .  S
O1064      C1075   1.277       .  A
O1064     Cd1067   2.082       .  S
Zn1065     O1076   2.039       .  S
Zn1065     O1078   2.005       .  S
Zn1065     O1070   1.928   1_556  S
O1066      C1077   1.276       .  A
O1066     Cd1071   2.066   1_554  S
Cd1067     O1069   2.079       .  S
Cd1067     O1070   1.992       .  S
Cd1068     O1072   2.058   1_556  S
Cd1068     O1081   2.046       .  S
Cd1068     O1070   1.981   1_556  S
O1069      C1079   1.278       .  A
O1070     Cd1071   1.976   1_554  S
Cd1071     O1073   2.044       .  S
O1072      C1079   1.274       .  A
C1074      O1078   1.273       .  A
C1075      C1086   1.473       .  S
C1077      C1104   1.480       .  S
C1079      C1120   1.475       .  S
C1080      O1081   1.271       .  A
C1080      C1093   1.465       .  S
C1082      C1368   1.467       .  S
C1082      C1083   1.401       .  A
C1082      C1087   1.404       .  A
C1083      C1084   1.392       .  A
C1083      H1088   1.085       .  S
C1084      C1085   1.406       .  A
C1085      C1086   1.407       .  A
C1085      H1089   1.084       .  S
C1086      C1087   1.400       .  A
C1087      H1090   1.084       .  S
C1091      C1443   1.497       .  S
C1091      C1600   1.416   1_545  A
C1091      C1096   1.414       .  A
C1092      C1599   1.416       .  A
C1092      C1093   1.394       .  A
C1092      H1097   1.080       .  S
C1093      C1602   1.394       .  A
C1094      C1601   1.394   1_545  A
C1094      C1095   1.397       .  A
C1094      H1098   1.085       .  S
C1095      C1096   1.399       .  A
C1096      H1099   1.081       .  S
C1100      C1347   1.508       .  S
C1100      C1101   1.417   1_455  A
C1101      C1102   1.401       .  A
C1101      H1106   1.079       .  S
C1102      C1103   1.400   1_655  A
C1103      H1107   1.085       .  S
C1104      C1105   1.403       .  A
C1105      H1108   1.080       .  S
C1109      C1419   1.485       .  S
C1109      C1110   1.411       .  A
C1110      C1111   1.394       .  A
C1110      H1115   1.083       .  S
C1111      C1112   1.397       .  A
C1112      H1116   1.085       .  S
C1113      C1114   1.403       .  A
C1114      H1117   1.083       .  S
C1118      C1323   1.485       .  S
C1118      C1119   1.405       .  A
C1118      C1631   1.413       .  A
C1119      C1120   1.392       .  A
C1119      H1124   1.084       .  S
C1120      C1121   1.402       .  A
C1121      C1630   1.408       .  A
C1121      H1125   1.084       .  S
C1122      C1629   1.408       .  A
C1122      C1123   1.408       .  A
C1123      C1626   1.413       .  A
C1123      H1126   1.083       .  S
O1127      C1143   1.276       .  A
O1127     Zn1133   2.025       .  S
C1128      O1144   1.279       .  A
C1128      O1141   1.272       .  A
C1128      C1184   1.466       .  S
O1129      C1142   1.277       .  A
O1129     Cd1136   2.085       .  S
O1130      C1148   1.276       .  A
O1130     Cd1139   2.086       .  S
O1131      C1145   1.280       .  A
O1131     Cd1135   2.097       .  S
O1132      C1143   1.278       .  A
O1132     Cd1135   2.095       .  S
Zn1133     O1144   2.045       .  S
Zn1133     O1146   1.997       .  S
Zn1133     O1138   1.931       .  S
O1134      C1145   1.273       .  A
O1134     Cd1139   2.054       .  S
Cd1135     O1137   2.089       .  S
Cd1135     O1138   2.002       .  S
Cd1136     O1140   2.059       .  S
Cd1136     O1149   2.066       .  S
Cd1136     O1138   1.989       .  S
O1137      C1147   1.279       .  A
O1138     Cd1139   1.984       .  S
Cd1139     O1141   2.041       .  S
O1140      C1147   1.275       .  A
C1142      O1146   1.272       .  A
C1142      C1152   1.468       .  S
C1143      C1213   1.486       .  S
C1145      C1220   1.479       .  S
C1147      C1202   1.473       .  S
C1148      O1149   1.274       .  A
C1148      C1193   1.472       .  S
C1150      C1464   1.498       .  S
C1150      C1151   1.416       .  A
C1150      C1155   1.416       .  A
C1151      C1152   1.396       .  A
C1151      H1156   1.081       .  S
C1152      C1153   1.395       .  A
C1153      C1154   1.398       .  A
C1153      H1157   1.085       .  S
C1154      C1174   1.468       .  S
C1154      C1155   1.401       .  A
C1155      H1158   1.081       .  S
O1159      C1175   1.280       .  A
O1159     Zn1165   2.066       .  S
C1160      O1176   1.276       .  A
C1160      O1173   1.278       .  A
C1160      C1211   1.487       .  S
O1161      C1174   1.277       .  A
O1161     Cd1168   2.081       .  S
O1162      C1180   1.279       .  A
O1162     Cd1171   2.103       .  S
O1163      C1177   1.272       .  A
O1163     Cd1167   2.045       .  S
O1164      C1175   1.271       .  A
O1164     Cd1167   2.042       .  S
Zn1165     O1176   2.030       .  S
Zn1165     O1178   2.006       .  S
Zn1165     O1170   1.938       .  S
O1166      C1177   1.279       .  A
O1166     Cd1171   2.084       .  S
Cd1167     O1169   2.082       .  S
Cd1167     O1170   1.992       .  S
Cd1168     O1172   2.061       .  S
Cd1168     O1181   2.069       .  S
Cd1168     O1170   1.990       .  S
O1169      C1179   1.275       .  A
O1170     Cd1171   2.006       .  S
Cd1171     O1173   2.096       .  S
O1172      C1179   1.274       .  A
C1174      O1178   1.275       .  A
C1175      C1195   1.473       .  S
C1177      C1204   1.471       .  S
C1179      C1186   1.471       .  S
C1180      O1181   1.276       .  A
C1180      C1222   1.483       .  S
C1182      C1512   1.491       .  S
C1182      C1183   1.413       .  A
C1182      C1695   1.414   1_545  A
C1183      C1184   1.396       .  A
C1183      H1188   1.082       .  S
C1184      C1185   1.397   1_545  A
C1185      C1694   1.399       .  A
C1185      H1189   1.085       .  S
C1186      C1693   1.399       .  A
C1186      C1187   1.401       .  A
C1187      C1690   1.414       .  A
C1187      H1190   1.082       .  S
C1191      C1491   1.490       .  S
C1191      C1196   1.414       .  A
C1192      C1193   1.397       .  A
C1192      H1197   1.083       .  S
C1194      C1195   1.404       .  A
C1194      H1198   1.085       .  S
C1195      C1196   1.401       .  A
C1196      H1199   1.083       .  S
C1200      C1299   1.471       .  S
C1200      C1201   1.406   1_455  A
C1201      C1202   1.401       .  A
C1201      H1206   1.084       .  S
C1202      C1203   1.407       .  A
C1203      H1207   1.084       .  S
C1204      C1205   1.392       .  A
C1205      H1208   1.084       .  S
C1209      C1272   1.516       .  S
C1209      C1210   1.421       .  A
C1209      C1214   1.419       .  A
C1210      C1211   1.406       .  A
C1210      H1215   1.079       .  S
C1211      C1212   1.403       .  A
C1212      C1213   1.403       .  A
C1212      H1216   1.084       .  S
C1213      C1214   1.404       .  A
C1214      H1217   1.079       .  S
C1218      C1251   1.490       .  S
C1218      C1727   1.410       .  A
C1218      C1223   1.414       .  A
C1219      C1726   1.410   1_545  A
C1219      C1220   1.394       .  A
C1219      H1224   1.083       .  S
C1220      C1729   1.404   1_545  A
C1221      C1728   1.404       .  A
C1221      C1222   1.406       .  A
C1221      H1225   1.084       .  S
C1222      C1223   1.407       .  A
C1223      H1226   1.083       .  S
C1227      H1228   1.111       .  S
C1227      C1741   1.527       .  S
C1227      C1740   1.535       .  S
C1229      H1738   1.111       .  S
C1229      C1234   1.529       .  S
H1230      C1737   1.111       .  S
C1231      C1234   1.371       .  D
C1231      C1371   1.476       .  S
C1232      C1735   1.535       .  S
C1232      C1235   1.365       .  D
C1232      C1320   1.473       .  S
C1233      C1735   1.527       .  S
C1233      C1236   1.367   1_655  D
C1233      C1344   1.474       .  S
C1234      C1275   1.477       .  S
C1235      C1248   1.472       .  S
C1236      C1296   1.472       .  S
C1237      C1238   1.393       .  A
C1237      C1242   1.402       .  A
C1237      H1253   1.084       .  S
C1238      C1239   1.400       .  A
C1238      H1254   1.084       .  S
C1239      C1249   1.393       .  A
C1239      C1748   1.411       .  A
C1240      C1747   1.411       .  A
C1240      C1246   1.412       .  A
C1240      C1241   1.409       .  A
C1241      C1243   1.412       .  A
C1241      C1750   1.409       .  A
C1242      C1749   1.409       .  A
C1242      C1250   1.393       .  A
C1243      C1252   1.408       .  A
C1243      C1244   1.405       .  A
C1244      C1245   1.402       .  A
C1244      H1255   1.083       .  S
C1245      C1246   1.404       .  A
C1245      H1256   1.083       .  S
C1246      C1247   1.406       .  A
C1247      C1248   1.405       .  A
C1247      H1257   1.084       .  S
C1248      C1757   1.399       .  A
C1249      C1756   1.399       .  A
C1249      H1258   1.084       .  S
C1250      C1759   1.409   1_545  A
C1250      H1259   1.083       .  S
C1251      C1758   1.409       .  A
C1251      C1252   1.410       .  A
C1252      H1260   1.083       .  S
C1261      C1262   1.401       .  A
C1261      C1266   1.403       .  A
C1261      H1277   1.084       .  S
C1262      C1263   1.406       .  A
C1262      H1278   1.083       .  S
C1263      C1273   1.407       .  A
C1263      C1264   1.409       .  A
C1264      C1270   1.407       .  A
C1264      C1265   1.414       .  A
C1265      C1267   1.412       .  A
C1265      C1266   1.411       .  A
C1266      C1274   1.405       .  A
C1267      C1276   1.403       .  A
C1267      C1268   1.402       .  A
C1268      C1269   1.399       .  A
C1268      H1279   1.084       .  S
C1269      C1270   1.405       .  A
C1269      H1280   1.084       .  S
C1270      C1271   1.403       .  A
C1271      C1272   1.417       .  A
C1271      H1281   1.079       .  S
C1272      C1273   1.417       .  A
C1273      H1282   1.080       .  S
C1274      C1275   1.404       .  A
C1274      H1283   1.084       .  S
C1275      C1276   1.402       .  A
C1276      H1284   1.085       .  S
C1285      C1286   1.399       .  A
C1285      C1290   1.403       .  A
C1285      H1301   1.083       .  S
C1286      C1287   1.403       .  A
C1286      H1302   1.084       .  S
C1287      C1297   1.401       .  A
C1287      C1288   1.412   1_655  A
C1288      C1289   1.405       .  A
C1289      C1290   1.413   1_455  A
C1290      C1298   1.402       .  A
C1291      C1300   1.390       .  A
C1291      C1292   1.401       .  A
C1292      C1293   1.392       .  A
C1292      H1303   1.084       .  S
C1293      C1294   1.401       .  A
C1293      H1304   1.084       .  S
C1294      C1295   1.390       .  A
C1295      H1305   1.079       .  S
C1296      C1297   1.404   1_455  A
C1297      H1306   1.082       .  S
C1298      C1299   1.404   1_655  A
C1298      H1307   1.084       .  S
C1300      H1308   1.085       .  S
C1309      C1310   1.402       .  A
C1309      C1314   1.405       .  A
C1309      H1325   1.083       .  S
C1310      C1311   1.405       .  A
C1310      H1326   1.083       .  S
C1311      C1321   1.406       .  A
C1311      C1820   1.412   1_545  A
C1312      C1819   1.412       .  A
C1312      C1318   1.411       .  A
C1312      C1313   1.408       .  A
C1313      C1315   1.408       .  A
C1313      C1822   1.413       .  A
C1314      C1821   1.413   1_545  A
C1314      C1322   1.408       .  A
C1315      C1324   1.390       .  A
C1315      C1316   1.402       .  A
C1316      C1317   1.392       .  A
C1316      H1327   1.084       .  S
C1317      C1318   1.400       .  A
C1317      H1328   1.084       .  S
C1318      C1319   1.391       .  A
C1319      C1320   1.400       .  A
C1319      H1329   1.084       .  S
C1320      C1829   1.405       .  A
C1321      C1828   1.405   1_545  A
C1321      H1330   1.084       .  S
C1322      C1831   1.408   1_545  A
C1322      H1331   1.084       .  S
C1323      C1830   1.408       .  A
C1323      C1324   1.408       .  A
C1324      H1332   1.084       .  S
C1333      C1334   1.398       .  A
C1333      C1338   1.404       .  A
C1333      H1349   1.084       .  S
C1334      C1335   1.403       .  A
C1334      H1350   1.084       .  S
C1335      C1345   1.401       .  A
C1336      C1342   1.412   1_455  A
C1336      C1337   1.412       .  A
C1337      C1339   1.408   1_455  A
C1338      C1346   1.402       .  A
C1339      C1348   1.403       .  A
C1339      C1340   1.405       .  A
C1340      C1341   1.400       .  A
C1340      H1351   1.084       .  S
C1341      C1342   1.403       .  A
C1341      H1352   1.084       .  S
C1342      C1343   1.404       .  A
C1343      C1344   1.403       .  A
C1343      H1353   1.084       .  S
C1345      H1354   1.085       .  S
C1346      H1355   1.080       .  S
C1347      C1348   1.415   1_455  A
C1348      H1356   1.080       .  S
C1357      C1358   1.398       .  A
C1357      C1362   1.403       .  A
C1357      H1373   1.084       .  S
C1358      C1359   1.403       .  A
C1358      H1374   1.084       .  S
C1359      C1369   1.400       .  A
C1359      C1360   1.412       .  A
C1360      C1366   1.411       .  A
C1360      C1361   1.405       .  A
C1361      C1363   1.409       .  A
C1361      C1362   1.412       .  A
C1362      C1370   1.401       .  A
C1363      C1372   1.390       .  A
C1363      C1364   1.402       .  A
C1364      C1365   1.393       .  A
C1364      H1375   1.084       .  S
C1365      C1366   1.402       .  A
C1365      H1376   1.084       .  S
C1366      C1367   1.392       .  A
C1367      C1368   1.403       .  A
C1367      H1377   1.085       .  S
C1368      C1369   1.402       .  A
C1369      H1378   1.084       .  S
C1370      C1371   1.403       .  A
C1370      H1379   1.081       .  S
C1371      C1372   1.403       .  A
C1372      H1380   1.079       .  S
C1381      C1382   1.398       .  A
C1381      C1386   1.404       .  A
C1381      H1397   1.084       .  S
C1382      C1383   1.402       .  A
C1382      H1398   1.084       .  S
C1383      C1393   1.403       .  A
C1383      C1384   1.415       .  A
C1384      C1390   1.410       .  A
C1384      C1385   1.407       .  A
C1385      C1387   1.412       .  A
C1385      C1386   1.409       .  A
C1386      C1394   1.398       .  A
C1387      C1396   1.398       .  A
C1387      C1388   1.402       .  A
C1388      C1389   1.395       .  A
C1388      H1399   1.084       .  S
C1389      C1390   1.402       .  A
C1389      H1400   1.084       .  S
C1390      C1391   1.393       .  A
C1391      C1392   1.401       .  A
C1391      H1401   1.085       .  S
C1392      C1393   1.399       .  A
C1393      H1402   1.084       .  S
C1394      C1395   1.408       .  A
C1394      H1403   1.083       .  S
C1395      C1396   1.406       .  A
C1396      H1404   1.083       .  S
C1405      C1406   1.401       .  A
C1405      C1410   1.405       .  A
C1405      H1421   1.083       .  S
C1406      C1407   1.403       .  A
C1406      H1422   1.083       .  S
C1407      C1417   1.408       .  A
C1408      C1414   1.409       .  A
C1408      C1409   1.409       .  A
C1409      C1411   1.411       .  A
C1410      C1418   1.405       .  A
C1411      C1420   1.396       .  A
C1411      C1412   1.402       .  A
C1412      C1413   1.394       .  A
C1412      H1423   1.084       .  S
C1413      C1414   1.402       .  A
C1413      H1424   1.084       .  S
C1414      C1415   1.392       .  A
C1415      C1416   1.403       .  A
C1415      H1425   1.083       .  S
C1417      H1426   1.084       .  S
C1418      H1427   1.084       .  S
C1419      C1420   1.406       .  A
C1420      H1428   1.084       .  S
C1429      C1430   1.400       .  A
C1429      C1434   1.405       .  A
C1429      H1445   1.084       .  S
C1430      C1431   1.403       .  A
C1430      H1446   1.084       .  S
C1431      C1441   1.403       .  A
C1431      C1432   1.413   1_545  A
C1432      C1946   1.411       .  A
C1432      C1433   1.407   1_565  A
C1433      C1943   1.408   1_545  A
C1433      C1434   1.409       .  A
C1434      C1442   1.403       .  A
C1435      C1941   1.408       .  A
C1435      C1444   1.395       .  A
C1435      C1436   1.402       .  A
C1436      C1437   1.394       .  A
C1436      H1447   1.084       .  S
C1437      C1438   1.401       .  A
C1437      H1448   1.084       .  S
C1438      C1940   1.411       .  A
C1438      C1439   1.393       .  A
C1439      C1948   1.399       .  A
C1439      H1449   1.086       .  S
C1440      C1947   1.399       .  A
C1440      C1441   1.402   1_565  A
C1441      H1450   1.084       .  S
C1442      C1443   1.415       .  A
C1442      H1451   1.081       .  S
C1443      C1952   1.409   1_545  A
C1444      C1951   1.409       .  A
C1444      H1452   1.081       .  S
C1453      C1454   1.400       .  A
C1453      C1458   1.403       .  A
C1453      H1469   1.083       .  S
C1454      C1455   1.405       .  A
C1454      H1470   1.083       .  S
C1455      C1465   1.404       .  A
C1455      C1456   1.409       .  A
C1456      C1462   1.409       .  A
C1456      C1457   1.409       .  A
C1457      C1459   1.411       .  A
C1457      C1458   1.414       .  A
C1458      C1466   1.404       .  A
C1459      C1468   1.394       .  A
C1459      C1460   1.401       .  A
C1460      C1461   1.394       .  A
C1460      H1471   1.084       .  S
C1461      C1462   1.403       .  A
C1461      H1472   1.084       .  S
C1462      C1463   1.397       .  A
C1463      C1464   1.410       .  A
C1463      H1473   1.081       .  S
C1464      C1465   1.414       .  A
C1465      H1474   1.082       .  S
C1466      C1467   1.401       .  A
C1466      H1475   1.084       .  S
C1467      C1468   1.399       .  A
C1468      H1476   1.086       .  S
C1477      C1478   1.401       .  A
C1477      C1482   1.405       .  A
C1477      H1493   1.083       .  S
C1478      C1479   1.403       .  A
C1478      H1494   1.083       .  S
C1479      C1489   1.406       .  A
C1479      C1480   1.414       .  A
C1480      C1481   1.409       .  A
C1481      C1482   1.410       .  A
C1482      C1490   1.404       .  A
C1483      C1492   1.398       .  A
C1483      C1484   1.402       .  A
C1484      C1485   1.395       .  A
C1484      H1495   1.084       .  S
C1485      C1486   1.402       .  A
C1485      H1496   1.084       .  S
C1486      C1487   1.393       .  A
C1487      H1497   1.085       .  S
C1488      C1489   1.402       .  A
C1489      H1498   1.084       .  S
C1490      C1491   1.411       .  A
C1490      H1499   1.083       .  S
C1492      H1500   1.083       .  S
C1501      C1502   1.400       .  A
C1501      C1506   1.403       .  A
C1501      H1517   1.084       .  S
C1502      C1503   1.405       .  A
C1502      H1518   1.084       .  S
C1503      C1513   1.402       .  A
C1503      C1504   1.409   1_565  A
C1504      C1510   1.411       .  A
C1504      C1505   1.409       .  A
C1505      C1507   1.410       .  A
C1505      C1506   1.414   1_545  A
C1506      C1514   1.405       .  A
C1507      C1516   1.393       .  A
C1507      C1508   1.402       .  A
C1508      C1509   1.395       .  A
C1508      H1519   1.084       .  S
C1509      C1510   1.403       .  A
C1509      H1520   1.084       .  S
C1510      C1511   1.398       .  A
C1511      C1512   1.408       .  A
C1511      H2029   1.083       .  S
C1512      C1513   1.411   1_545  A
C1513      H1522   1.083       .  S
C1514      C1515   1.401   1_565  A
C1514      H1523   1.084       .  S
C1515      C1516   1.400       .  A
C1516      H1524   1.085       .  S
H1521      C2019   1.083       .  S
C1525      H1526   1.113       .  S
C1525      C1531   1.529       .  S
C1525      C1530   1.533       .  S
C1527      H1528   1.113       .  S
C1529      C1532   1.360       .  D
C1529      C1900   1.463       .  S
C1530      C1533   1.369       .  D
C1530      C1924   1.473       .  S
C1531      C1534   1.361       .  D
C1531      C1948   1.460       .  S
C1532      C1975   1.463       .  S
C1533      C1996   1.467       .  S
C1534      C2023   1.465       .  S
O1535      C1551   1.275       .  A
O1535     Zn1541   2.027       .  S
C1536      O1552   1.270       .  A
C1536      O1549   1.278       .  A
C1536      C1592   1.469       .  S
O1537      C1550   1.277       .  A
O1537     Cd1544   2.085       .  S
O1538      C1556   1.279       .  A
O1538     Cd1547   2.090       .  S
O1539      C1553   1.276       .  A
O1539     Cd1543   2.065   1_554  S
O1540      C1551   1.272       .  A
O1540     Cd1543   2.046       .  S
Zn1541     O1552   1.986   1_556  S
Zn1541     O1554   1.988       .  S
Zn1541     O1546   1.933   1_556  S
O1542      C1553   1.279       .  A
O1542     Cd1547   2.101       .  S
Cd1543     O1545   2.084       .  S
Cd1543     O1546   1.982   1_556  S
Cd1544     O1548   2.058       .  S
Cd1544     O1557   2.063   1_556  S
Cd1544     O1546   1.984   1_556  S
O1545      C1555   1.277       .  A
O1546     Cd1547   2.001       .  S
Cd1547     O1549   2.084       .  S
O1548      C1555   1.275       .  A
C1550      O1554   1.271       .  A
C1550      C1562   1.467       .  S
C1551      C1603   1.465       .  S
C1553      C1630   1.482       .  S
C1555      C1621   1.469       .  S
C1556      O1557   1.275       .  A
C1556      C1610   1.479       .  S
C1558      C1903   1.482       .  S
C1558      C1559   1.409       .  A
C1558      C1563   1.409       .  A
C1559      C1560   1.396       .  A
C1559      H1564   1.083       .  S
C1560      C1582   1.466       .  S
C1560      C1561   1.400       .  A
C1561      C1562   1.402       .  A
C1561      H1565   1.085       .  S
C1562      C1563   1.396       .  A
C1563      H1566   1.083       .  S
O1567      C1583   1.274       .  A
O1567     Zn1573   2.011   1_554  S
C1568      O1584   1.278       .  A
C1568      O1581   1.272       .  A
C1568      C1619   1.466       .  S
O1569      C1582   1.276       .  A
O1569     Cd1576   2.072       .  S
O1570      C1588   1.277       .  A
O1570     Cd1579   2.085       .  S
O1571      C1585   1.277       .  A
O1571     Cd1575   2.086       .  S
O1572      C1583   1.277       .  A
O1572     Cd1575   2.082       .  S
Zn1573     O1584   2.039       .  S
Zn1573     O1586   2.005       .  S
Zn1573     O1578   1.928   1_556  S
O1574      C1585   1.276       .  A
O1574     Cd1579   2.066   1_554  S
Cd1575     O1577   2.079       .  S
Cd1575     O1578   1.992       .  S
Cd1576     O1580   2.058   1_556  S
Cd1576     O1589   2.046       .  S
Cd1576     O1578   1.981   1_556  S
O1577      C1587   1.278       .  A
O1578     Cd1579   1.976   1_554  S
Cd1579     O1581   2.044       .  S
O1580      C1587   1.274       .  A
C1582      O1586   1.273       .  A
C1583      C1594   1.473       .  S
C1585      C1612   1.480       .  S
C1587      C1628   1.475       .  S
C1588      O1589   1.271       .  A
C1588      C1601   1.465       .  S
C1590      C1876   1.467       .  S
C1590      C1591   1.401       .  A
C1590      C1595   1.404       .  A
C1591      C1592   1.392       .  A
C1591      H1596   1.085       .  S
C1592      C1593   1.406       .  A
C1593      C1594   1.407       .  A
C1593      H1597   1.084       .  S
C1594      C1595   1.400       .  A
C1595      H1598   1.084       .  S
C1599      C1951   1.497       .  S
C1599      C1604   1.414       .  A
C1600      C1601   1.394       .  A
C1600      H1605   1.080       .  S
C1602      C1603   1.397       .  A
C1602      H1606   1.085       .  S
C1603      C1604   1.399       .  A
C1604      H1607   1.081       .  S
C1608      C1855   1.508       .  S
C1608      C1609   1.417   1_455  A
C1609      C1610   1.401       .  A
C1609      H1614   1.079       .  S
C1610      C1611   1.400   1_655  A
C1611      H1615   1.085       .  S
C1612      C1613   1.403       .  A
C1613      H1616   1.080       .  S
C1617      C1927   1.485       .  S
C1617      C1618   1.411       .  A
C1618      C1619   1.394       .  A
C1618      H1623   1.083       .  S
C1619      C1620   1.397       .  A
C1620      H1624   1.085       .  S
C1621      C1622   1.403       .  A
C1622      H1625   1.083       .  S
C1626      C1831   1.485   1_545  S
C1626      C1627   1.405   1_545  A
C1627      C1628   1.392       .  A
C1627      H1632   1.084       .  S
C1628      C1629   1.402   1_565  A
C1629      H1633   1.084       .  S
C1630      C1631   1.408       .  A
C1631      H1634   1.083       .  S
O1635      C1651   1.276       .  A
O1635     Zn1641   2.025       .  S
C1636      O1652   1.279       .  A
C1636      O1649   1.272       .  A
C1636      C1692   1.466       .  S
O1637      C1650   1.277       .  A
O1637     Cd1644   2.085       .  S
O1638      C1656   1.276       .  A
O1638     Cd1647   2.085       .  S
O1639      C1653   1.280       .  A
O1639     Cd1643   2.097       .  S
O1640      C1651   1.278       .  A
O1640     Cd1643   2.095       .  S
Zn1641     O1652   2.045       .  S
Zn1641     O1654   1.997       .  S
Zn1641     O1646   1.931       .  S
O1642      C1653   1.273       .  A
O1642     Cd1647   2.054       .  S
Cd1643     O1645   2.089       .  S
Cd1643     O1646   2.002       .  S
Cd1644     O1648   2.058       .  S
Cd1644     O1657   2.066       .  S
Cd1644     O1646   1.989       .  S
O1645      C1655   1.279       .  A
O1646     Cd1647   1.984       .  S
Cd1647     O1649   2.041       .  S
O1648      C1655   1.275       .  A
C1650      O1654   1.272       .  A
C1650      C1660   1.468       .  S
C1651      C1721   1.486       .  S
C1653      C1728   1.479       .  S
C1655      C1710   1.473       .  S
C1656      O1657   1.274       .  A
C1656      C1701   1.472       .  S
C1658      C1972   1.498       .  S
C1658      C1659   1.416       .  A
C1658      C1663   1.416       .  A
C1659      C1660   1.396       .  A
C1659      H1664   1.081       .  S
C1660      C1661   1.395       .  A
C1661      C1662   1.398       .  A
C1661      H1665   1.085       .  S
C1662      C1682   1.468       .  S
C1662      C1663   1.401       .  A
C1663      H1666   1.081       .  S
O1667      C1683   1.280       .  A
O1667     Zn1673   2.066       .  S
C1668      O1684   1.276       .  A
C1668      O1681   1.278       .  A
C1668      C1719   1.487       .  S
O1669      C1682   1.277       .  A
O1669     Cd1676   2.081       .  S
O1670      C1688   1.279       .  A
O1670     Cd1679   2.103       .  S
O1671      C1685   1.272       .  A
O1671     Cd1675   2.045       .  S
O1672      C1683   1.271       .  A
O1672     Cd1675   2.042       .  S
Zn1673     O1684   2.030       .  S
Zn1673     O1686   2.006       .  S
Zn1673     O1678   1.938       .  S
O1674      C1685   1.279       .  A
O1674     Cd1679   2.084       .  S
Cd1675     O1677   2.082       .  S
Cd1675     O1678   1.992       .  S
Cd1676     O1680   2.061       .  S
Cd1676     O1689   2.069       .  S
Cd1676     O1678   1.990       .  S
O1677      C1687   1.275       .  A
O1678     Cd1679   2.006       .  S
Cd1679     O1681   2.096       .  S
O1680      C1687   1.274       .  A
C1682      O1686   1.275       .  A
C1683      C1703   1.473       .  S
C1685      C1712   1.471       .  S
C1687      C1694   1.471       .  S
C1688      O1689   1.276       .  A
C1688      C1730   1.483       .  S
C1690      C2020   1.491       .  S
C1690      C1691   1.413       .  A
C1691      C1692   1.396       .  A
C1691      H1696   1.082       .  S
C1692      C1693   1.397       .  A
C1693      H1697   1.085       .  S
C1694      C1695   1.401       .  A
C1695      H1698   1.082       .  S
C1699      C1999   1.490       .  S
C1699      C1704   1.414       .  A
C1700      C1701   1.397       .  A
C1700      H1705   1.083       .  S
C1702      C1703   1.404       .  A
C1702      H1706   1.085       .  S
C1703      C1704   1.401       .  A
C1704      H1707   1.083       .  S
C1708      C1807   1.471       .  S
C1708      C1709   1.406   1_455  A
C1709      C1710   1.401       .  A
C1709      H1714   1.084       .  S
C1710      C1711   1.407       .  A
C1711      H1715   1.084       .  S
C1712      C1713   1.392       .  A
C1713      H1716   1.084       .  S
C1717      C1780   1.516       .  S
C1717      C1718   1.421       .  A
C1717      C1722   1.419       .  A
C1718      C1719   1.406       .  A
C1718      H1723   1.079       .  S
C1719      C1720   1.403       .  A
C1720      C1721   1.403       .  A
C1720      H1724   1.084       .  S
C1721      C1722   1.404       .  A
C1722      H1725   1.079       .  S
C1726      C1759   1.490       .  S
C1726      C1731   1.414       .  A
C1727      C1728   1.394       .  A
C1727      H1732   1.083       .  S
C1729      C1730   1.406       .  A
C1729      H1733   1.084       .  S
C1730      C1731   1.407       .  A
C1731      H1734   1.083       .  S
C1735      H1736   1.111       .  S
C1737      C1742   1.529       .  S
C1739      C1742   1.371       .  D
C1739      C1879   1.476       .  S
C1740      C1743   1.365   1_565  D
C1740      C1828   1.473       .  S
C1741      C1744   1.367   1_655  D
C1741      C1852   1.474       .  S
C1742      C1783   1.477       .  S
C1743      C1756   1.472       .  S
C1744      C1804   1.472       .  S
C1745      C1746   1.393       .  A
C1745      C1750   1.402       .  A
C1745      H1761   1.084       .  S
C1746      C1747   1.400       .  A
C1746      H1762   1.084       .  S
C1747      C1757   1.393       .  A
C1748      C1754   1.412   1_545  A
C1748      C1749   1.409       .  A
C1749      C1751   1.412   1_545  A
C1750      C1758   1.393       .  A
C1751      C1760   1.408       .  A
C1751      C1752   1.405       .  A
C1752      C1753   1.402       .  A
C1752      H1763   1.083       .  S
C1753      C1754   1.404       .  A
C1753      H1764   1.083       .  S
C1754      C1755   1.406       .  A
C1755      C1756   1.405   1_565  A
C1755      H1765   1.084       .  S
C1757      H1766   1.084       .  S
C1758      H1767   1.083       .  S
C1759      C1760   1.410       .  A
C1760      H1768   1.083       .  S
C1769      C1770   1.401       .  A
C1769      C1774   1.403       .  A
C1769      H1785   1.084       .  S
C1770      C1771   1.406       .  A
C1770      H1786   1.083       .  S
C1771      C1781   1.407       .  A
C1771      C1772   1.409       .  A
C1772      C1778   1.407       .  A
C1772      C1773   1.414       .  A
C1773      C1775   1.412       .  A
C1773      C1774   1.411       .  A
C1774      C1782   1.405       .  A
C1775      C1784   1.403       .  A
C1775      C1776   1.402       .  A
C1776      C1777   1.399       .  A
C1776      H1787   1.084       .  S
C1777      C1778   1.405       .  A
C1777      H1788   1.084       .  S
C1778      C1779   1.403       .  A
C1779      C1780   1.417       .  A
C1779      H1789   1.079       .  S
C1780      C1781   1.417       .  A
C1781      H1790   1.080       .  S
C1782      C1783   1.404       .  A
C1782      H1791   1.084       .  S
C1783      C1784   1.402       .  A
C1784      H1792   1.085       .  S
C1793      C1794   1.399       .  A
C1793      C1798   1.403       .  A
C1793      H1809   1.083       .  S
C1794      C1795   1.403       .  A
C1794      H1810   1.084       .  S
C1795      C1805   1.401       .  A
C1795      C1796   1.412   1_655  A
C1796      C1797   1.405       .  A
C1797      C1798   1.413   1_455  A
C1798      C1806   1.402       .  A
C1799      C1808   1.390       .  A
C1799      C1800   1.401       .  A
C1800      C1801   1.392       .  A
C1800      H1811   1.084       .  S
C1801      C1802   1.401       .  A
C1801      H1812   1.084       .  S
C1802      C1803   1.390       .  A
C1803      H1813   1.079       .  S
C1804      C1805   1.404   1_455  A
C1805      H1814   1.082       .  S
C1806      C1807   1.404   1_655  A
C1806      H1815   1.084       .  S
C1808      H1816   1.085       .  S
C1817      C1818   1.402       .  A
C1817      C1822   1.405       .  A
C1817      H1833   1.083       .  S
C1818      C1819   1.405       .  A
C1818      H1834   1.083       .  S
C1819      C1829   1.406       .  A
C1820      C1826   1.411       .  A
C1820      C1821   1.408       .  A
C1821      C1823   1.408       .  A
C1822      C1830   1.408       .  A
C1823      C1832   1.390       .  A
C1823      C1824   1.402       .  A
C1824      C1825   1.392       .  A
C1824      H1835   1.084       .  S
C1825      C1826   1.400       .  A
C1825      H1836   1.084       .  S
C1826      C1827   1.391       .  A
C1827      C1828   1.400       .  A
C1827      H1837   1.084       .  S
C1829      H1838   1.084       .  S
C1830      H1839   1.084       .  S
C1831      C1832   1.408       .  A
C1832      H1840   1.084       .  S
C1841      C1842   1.398       .  A
C1841      C1846   1.404       .  A
C1841      H1857   1.084       .  S
C1842      C1843   1.403       .  A
C1842      H1858   1.084       .  S
C1843      C1853   1.401       .  A
C1844      C1850   1.412   1_455  A
C1844      C1845   1.412       .  A
C1845      C1847   1.408   1_455  A
C1846      C1854   1.402       .  A
C1847      C1856   1.403       .  A
C1847      C1848   1.405       .  A
C1848      C1849   1.400       .  A
C1848      H1859   1.084       .  S
C1849      C1850   1.403       .  A
C1849      H1860   1.084       .  S
C1850      C1851   1.404       .  A
C1851      C1852   1.403       .  A
C1851      H1861   1.084       .  S
C1853      H1862   1.085       .  S
C1854      H1863   1.080       .  S
C1855      C1856   1.415   1_455  A
C1856      H1864   1.080       .  S
C1865      C1866   1.398       .  A
C1865      C1870   1.403       .  A
C1865      H1881   1.084       .  S
C1866      C1867   1.403       .  A
C1866      H1882   1.084       .  S
C1867      C1877   1.400       .  A
C1867      C1868   1.412       .  A
C1868      C1874   1.411       .  A
C1868      C1869   1.405       .  A
C1869      C1871   1.409       .  A
C1869      C1870   1.412       .  A
C1870      C1878   1.401       .  A
C1871      C1880   1.390       .  A
C1871      C1872   1.402       .  A
C1872      C1873   1.393       .  A
C1872      H1883   1.084       .  S
C1873      C1874   1.402       .  A
C1873      H1884   1.084       .  S
C1874      C1875   1.392       .  A
C1875      C1876   1.403       .  A
C1875      H1885   1.085       .  S
C1876      C1877   1.402       .  A
C1877      H1886   1.084       .  S
C1878      C1879   1.403       .  A
C1878      H1887   1.081       .  S
C1879      C1880   1.403       .  A
C1880      H1888   1.079       .  S
C1889      C1890   1.398       .  A
C1889      C1894   1.404       .  A
C1889      H1905   1.084       .  S
C1890      C1891   1.402       .  A
C1890      H1906   1.084       .  S
C1891      C1901   1.403       .  A
C1891      C1892   1.415       .  A
C1892      C1898   1.410       .  A
C1892      C1893   1.407       .  A
C1893      C1895   1.412       .  A
C1893      C1894   1.409       .  A
C1894      C1902   1.398       .  A
C1895      C1904   1.398       .  A
C1895      C1896   1.402       .  A
C1896      C1897   1.395       .  A
C1896      H1907   1.084       .  S
C1897      C1898   1.402       .  A
C1897      H1908   1.084       .  S
C1898      C1899   1.393       .  A
C1899      C1900   1.401       .  A
C1899      H1909   1.085       .  S
C1900      C1901   1.399       .  A
C1901      H1910   1.084       .  S
C1902      C1903   1.408       .  A
C1902      H1911   1.083       .  S
C1903      C1904   1.406       .  A
C1904      H1912   1.083       .  S
C1913      C1914   1.401       .  A
C1913      C1918   1.405       .  A
C1913      H1929   1.083       .  S
C1914      C1915   1.403       .  A
C1914      H1930   1.083       .  S
C1915      C1925   1.408       .  A
C1916      C1922   1.409       .  A
C1916      C1917   1.409       .  A
C1917      C1919   1.411       .  A
C1918      C1926   1.405       .  A
C1919      C1928   1.396       .  A
C1919      C1920   1.402       .  A
C1920      C1921   1.394       .  A
C1920      H1931   1.084       .  S
C1921      C1922   1.402       .  A
C1921      H1932   1.084       .  S
C1922      C1923   1.392       .  A
C1923      C1924   1.403       .  A
C1923      H1933   1.083       .  S
C1925      H1934   1.084       .  S
C1926      H1935   1.084       .  S
C1927      C1928   1.406       .  A
C1928      H1936   1.084       .  S
C1937      C1938   1.400       .  A
C1937      C1942   1.405       .  A
C1937      H1953   1.084       .  S
C1938      C1939   1.403       .  A
C1938      H1954   1.084       .  S
C1939      C1949   1.403       .  A
C1939      C1940   1.413       .  A
C1940      C1941   1.407       .  A
C1941      C1942   1.409       .  A
C1942      C1950   1.403       .  A
C1943      C1952   1.395       .  A
C1943      C1944   1.402       .  A
C1944      C1945   1.394       .  A
C1944      H1955   1.084       .  S
C1945      C1946   1.401       .  A
C1945      H1956   1.084       .  S
C1946      C1947   1.393       .  A
C1947      H1957   1.086       .  S
C1948      C1949   1.402       .  A
C1949      H1958   1.084       .  S
C1950      C1951   1.415       .  A
C1950      H1959   1.081       .  S
C1952      H1960   1.081       .  S
C1961      C1962   1.400       .  A
C1961      C1966   1.403       .  A
C1961      H1977   1.083       .  S
C1962      C1963   1.405       .  A
C1962      H1978   1.083       .  S
C1963      C1973   1.404       .  A
C1963      C1964   1.409       .  A
C1964      C1970   1.409       .  A
C1964      C1965   1.409       .  A
C1965      C1967   1.411       .  A
C1965      C1966   1.414       .  A
C1966      C1974   1.404       .  A
C1967      C1976   1.394       .  A
C1967      C1968   1.401       .  A
C1968      C1969   1.394       .  A
C1968      H1979   1.084       .  S
C1969      C1970   1.403       .  A
C1969      H1980   1.084       .  S
C1970      C1971   1.397       .  A
C1971      C1972   1.410       .  A
C1971      H1981   1.081       .  S
C1972      C1973   1.414       .  A
C1973      H1982   1.082       .  S
C1974      C1975   1.401       .  A
C1974      H1983   1.084       .  S
C1975      C1976   1.399       .  A
C1976      H1984   1.086       .  S
C1985      C1986   1.401       .  A
C1985      C1990   1.405       .  A
C1985      H2001   1.083       .  S
C1986      C1987   1.403       .  A
C1986      H2002   1.083       .  S
C1987      C1997   1.406       .  A
C1987      C1988   1.414       .  A
C1988      C1989   1.409       .  A
C1989      C1990   1.410       .  A
C1990      C1998   1.404       .  A
C1991      C2000   1.398       .  A
C1991      C1992   1.402       .  A
C1992      C1993   1.395       .  A
C1992      H2003   1.084       .  S
C1993      C1994   1.402       .  A
C1993      H2004   1.084       .  S
C1994      C1995   1.393       .  A
C1995      H2005   1.085       .  S
C1996      C1997   1.402       .  A
C1997      H2006   1.084       .  S
C1998      C1999   1.411       .  A
C1998      H2007   1.083       .  S
C2000      H2008   1.083       .  S
C2009      C2010   1.400       .  A
C2009      C2014   1.403       .  A
C2009      H2025   1.084       .  S
C2010      C2011   1.405       .  A
C2010      H2026   1.084       .  S
C2011      C2021   1.402       .  A
C2011      C2012   1.409       .  A
C2012      C2018   1.411       .  A
C2012      C2013   1.409       .  A
C2013      C2015   1.410       .  A
C2013      C2014   1.414       .  A
C2014      C2022   1.405       .  A
C2015      C2024   1.393       .  A
C2015      C2016   1.402       .  A
C2016      C2017   1.395       .  A
C2016      H2027   1.084       .  S
C2017      C2018   1.403       .  A
C2017      H2028   1.084       .  S
C2018      C2019   1.398       .  A
C2019      C2020   1.408       .  A
C2020      C2021   1.411       .  A
C2021      H2030   1.083       .  S
C2022      C2023   1.401       .  A
C2022      H2031   1.084       .  S
C2023      C2024   1.400       .  A
C2024      H2032   1.085       .  S
