geometry optimzed in LAMMPS
_audit_creation_date              2020-11-30 
_audit_creation_method            'lammps2cif' 
_symmetry_space_group_name_H-M    'P1' 
_symmetry_Int_Tables_number       1 
_symmetry_cell_setting            triclinic 
loop_ 
_symmetry_equiv_pos_as_xyz 
  x,y,z 
_cell_length_a                    36.01615657 
_cell_length_b                    26.963322012839434 
_cell_length_c                    35.985932498926864 
_cell_angle_alpha                 90.8481994172714 
_cell_angle_beta                  89.94200682748344 
_cell_angle_gamma                 90.53581119198897 
loop_ 
_atom_site_label 
_atom_site_type_symbol 
_atom_site_fract_x 
_atom_site_fract_y 
_atom_site_fract_z 
_atom_site_charge 
O1          O  0.49441310  0.93410378  0.99974946    -0.71200
O2          O  0.49353707  0.08370146  0.00062737    -0.72200
O3          O  0.43729201  0.00740278  0.00376255    -0.60800
O4          O  0.05036460  0.99084192  0.01875247    -0.69200
O5          O  0.06080023  0.99861986  0.48958723    -0.68800
O6          O  0.45246911  0.01468457  0.45153013    -0.60000
O7          O  0.00550340  0.07170570  0.49132819    -0.72500
O8          O  0.00695553  0.92320381  0.47852567    -0.71300
Cu9        Cu  0.49366297  0.00885155  0.00234590     1.04600
Cu10       Cu  0.00613269  0.99778315  0.48256694     1.04300
C11         C  0.49170123  0.91043931  0.96881599     0.95000
C12         C  0.00130742  0.09060736  0.52383692     0.94100
C13         C  0.41786019  0.00678069  0.97394961     0.86300
C14         C  0.06503056  0.98936380  0.98640024     0.92500
O15         O  0.05817125  0.99923317  0.23702717    -0.71200
O16         O  0.44616165  0.00878283  0.23245562    -0.72200
O17         O  0.50435739  0.08126498  0.23028319    -0.60800
O18         O  0.00293383  0.92347203  0.23349749    -0.69200
O19         O  0.99899459  0.91913569  0.29495759    -0.68800
O20         O  0.00522841  0.06800226  0.30272222    -0.60000
O21         O  0.44858367  0.00928315  0.29405482    -0.72500
O22         O  0.05812703  0.99066643  0.29824970    -0.71300
Cu23       Cu  0.50192548  0.00641986  0.22813412     1.04600
Cu24       Cu  0.00218492  0.99341659  0.30095639     1.04300
C25         C  0.07580978  0.99448863  0.26759053     0.95000
C26         C  0.42971232  0.00934929  0.26397439     0.94100
C27         C  0.00345494  0.09378209  0.27331098     0.86300
C28         C  0.00032851  0.89790670  0.26299996     0.92500
O29         O  0.30965596  0.00813079  0.46833141    -0.71200
O30         O  0.19774427  0.00957422  0.46641838    -0.72200
O31         O  0.25518037  0.08331320  0.47189707    -0.60800
O32         O  0.25223700  0.93465412  0.46232011    -0.69200
O33         O  0.24625545  0.91897486  0.03422991    -0.68800
O34         O  0.24086958  0.06854405  0.04242221    -0.60000
O35         O  0.18800066  0.98970101  0.03968719    -0.72500
O36         O  0.29921550  0.99759631  0.03794254    -0.71300
Cu37       Cu  0.25372581  0.00916873  0.46505029     1.04600
Cu38       Cu  0.24361147  0.99353163  0.04073723     1.04300
C39         C  0.32589257  0.00717731  0.49989500     0.95000
C40         C  0.17929764  0.00436089  0.49652313     0.94100
C41         C  0.25254670  0.10391053  0.50398663     0.86300
C42         C  0.25299766  0.90845472  0.49156187     0.92500
O43         O  0.24797181  0.07278619  0.27295875    -0.71200
O44         O  0.25698008  0.92512098  0.26375507    -0.72200
O45         O  0.30864411  0.00507848  0.26794529    -0.60800
O46         O  0.19656673  0.99312727  0.26815165    -0.69200
O47         O  0.19625905  0.00192915  0.20694839    -0.68800
O48         O  0.30794678  0.00682928  0.20632721    -0.60000
O49         O  0.25322900  0.92956213  0.20232012    -0.72500
O50         O  0.25098756  0.07907474  0.21155680    -0.71300
Cu51       Cu  0.25258138  0.99880584  0.27031702     1.04600
Cu52       Cu  0.25210925  0.00452886  0.20460391     1.04300
C53         C  0.24839105  0.09922150  0.24386293     0.95000
C54         C  0.25609854  0.90394828  0.23177786     0.94100
C55         C  0.32594426  0.00710011  0.23690054     0.86300
C56         C  0.17875529  0.99671802  0.23755651     0.92500
O57         O  0.02560216  0.58175926  0.02236147    -0.71200
O58         O  0.03198057  0.73068240  0.02284265    -0.72200
O59         O  0.02812230  0.65745227  0.07834662    -0.60800
O60         O  0.02645024  0.66435892  0.46552984    -0.69200
O61         O  0.47532179  0.67719186  0.43315466    -0.68800
O62         O  0.47792683  0.68019643  0.04434628    -0.60000
O63         O  0.48115959  0.75268869  0.98697614    -0.72500
O64         O  0.48078235  0.60092560  0.48676033    -0.71300
Cu65       Cu  0.03084967  0.65604853  0.02246403     1.04600
Cu66       Cu  0.47303097  0.67425256  0.48935281     1.04300
C67         C  0.50321817  0.57832866  0.98849343     0.95000
C68         C  0.51290556  0.77422077  0.98766898     0.94100
C69         C  0.50873545  0.67737214  0.06188312     0.86300
C70         C  0.50615479  0.68115441  0.41564371     0.92500
O71         O  0.44840958  0.67336218  0.18228062    -0.71200
O72         O  0.44750738  0.67611944  0.29401782    -0.72200
O73         O  0.44871989  0.74922653  0.23726236    -0.60800
O74         O  0.44754043  0.60003010  0.23822536    -0.69200
O75         O  0.99351079  0.58778880  0.27052344    -0.68800
O76         O  0.00087155  0.73680398  0.27338522    -0.60000
O77         O  0.99659781  0.66122080  0.32799958    -0.72500
O78         O  0.99757175  0.66314589  0.21610442    -0.71300
Cu79       Cu  0.44593625  0.67464193  0.23798298     1.04600
Cu80       Cu  0.99927551  0.66210226  0.27200907     1.04300
C81         C  0.47927595  0.67415550  0.16484438     0.95000
C82         C  0.47796523  0.67599948  0.31219834     0.94100
C83         C  0.47969561  0.77261925  0.23861364     0.86300
C84         C  0.47810158  0.57634144  0.23836075     0.92500
O85         O  0.25663747  0.67393159  0.44323643    -0.71200
O86         O  0.24035253  0.65971647  0.05498697    -0.72200
O87         O  0.24312994  0.73726911  0.00270617    -0.60800
O88         O  0.24769789  0.58822133  0.99629623    -0.69200
O89         O  0.31246068  0.60266598  0.50401832    -0.68800
O90         O  0.30426455  0.74083743  0.01040454    -0.60000
O91         O  0.30172807  0.66226077  0.06071801    -0.72500
O92         O  0.31741346  0.68077472  0.45244638    -0.71300
Cu93       Cu  0.24327938  0.66262755  0.99932840     1.04600
Cu94       Cu  0.31115195  0.67682555  0.50790148     1.04300
C95         C  0.28963624  0.67776979  0.43045789     0.95000
C96         C  0.26941352  0.66068882  0.07530419     0.94100
C97         C  0.27464387  0.77191740  0.50711433     0.86300
C98         C  0.27915554  0.56666628  0.99745387     0.92500
O99         O  0.24919310  0.74344394  0.24743793    -0.71200
O100        O  0.25335431  0.59434441  0.24937017    -0.72200
O101        O  0.24497075  0.67071128  0.30406057    -0.60800
O102        O  0.25723800  0.66669908  0.19371254    -0.69200
O103        O  0.31840554  0.67281813  0.20030334    -0.68800
O104        O  0.30617898  0.67293612  0.31133237    -0.60000
O105        O  0.31467882  0.59843878  0.25498141    -0.72500
O106        O  0.31009773  0.74731292  0.25687569    -0.71300
Cu107      Cu  0.24905973  0.66868595  0.24848196     1.04600
Cu108      Cu  0.31450831  0.67303832  0.25611319     1.04300
C109        C  0.27904419  0.76877592  0.25214419     0.95000
C110        C  0.28478135  0.57291257  0.25167358     0.94100
C111        C  0.27346132  0.67231954  0.32513497     0.86300
C112        C  0.28971429  0.66898314  0.17956634     0.92500
O113        O  0.04779518  0.32309901  0.07101831    -0.71200
O114        O  0.03607705  0.33499975  0.46119208    -0.72200
O115        O  0.02526766  0.40640074  0.51889207    -0.60800
O116        O  0.04493402  0.24831374  0.01481063    -0.69200
O117        O  0.48640357  0.26833647  0.98438454    -0.68800
O118        O  0.46398242  0.41444891  0.48761321    -0.60000
O119        O  0.47403329  0.34028621  0.43161254    -0.72500
O120        O  0.48066344  0.34441661  0.03965123    -0.71300
Cu121      Cu  0.03685596  0.33348164  0.51684274     1.04600
Cu122      Cu  0.48757494  0.34338700  0.98468850     1.04300
C123        C  0.01722250  0.32372119  0.08905065     0.95000
C124        C  0.00625110  0.32793004  0.44267688     0.94100
C125        C  0.01875196  0.42179256  0.01767769     0.86300
C126        C  0.01602983  0.22981487  0.51397920     0.92500
O127        O  0.01691578  0.32874103  0.21024296    -0.71200
O128        O  0.01227945  0.32799139  0.32240421    -0.72200
O129        O  0.01298493  0.25394585  0.26530423    -0.60800
O130        O  0.01654552  0.40301593  0.26771721    -0.69200
O131        O  0.47459142  0.41628444  0.23634942    -0.68800
O132        O  0.47037697  0.26767945  0.23051333    -0.60000
O133        O  0.46176226  0.33993559  0.28880614    -0.72500
O134        O  0.48414892  0.34400231  0.17915754    -0.71300
Cu135      Cu  0.01684166  0.32841815  0.26651710     1.04600
Cu136      Cu  0.47058422  0.34204717  0.23332207     1.04300
C137        C  0.98671453  0.33084406  0.19162718     0.95000
C138        C  0.98066775  0.32737921  0.33866699     0.94100
C139        C  0.98175038  0.23146950  0.26187215     0.86300
C140        C  0.98645748  0.42772025  0.26778213     0.92500
O141        O  0.29359160  0.33261080  0.04113750    -0.71200
O142        O  0.29008592  0.34369972  0.43127284    -0.72200
O143        O  0.29233155  0.41717003  0.48903804    -0.60800
O144        O  0.28712181  0.25654620  0.98558041    -0.69200
O145        O  0.22654219  0.25356141  0.99696259    -0.68800
O146        O  0.23108269  0.41048479  0.49431529    -0.60000
O147        O  0.22908926  0.33547063  0.43836705    -0.72500
O148        O  0.23253755  0.33223876  0.04983855    -0.71300
Cu149      Cu  0.29842619  0.34296592  0.48638304     1.04600
Cu150      Cu  0.22271273  0.32809901  0.99505909     1.04300
C151        C  0.26556321  0.33359612  0.06281774     0.95000
C152        C  0.25755569  0.33916912  0.41740575     0.94100
C153        C  0.25312517  0.42790718  0.99023023     0.86300
C154        C  0.27067361  0.24187414  0.48805639     0.92500
O155        O  0.29560383  0.26484627  0.23089338    -0.71200
O156        O  0.29064496  0.41341210  0.23921572    -0.72200
O157        O  0.30208018  0.33627162  0.29029686    -0.60800
O158        O  0.28398867  0.34191424  0.18053332    -0.69200
O159        O  0.22327531  0.33461283  0.19009911    -0.68800
O160        O  0.24116680  0.33339614  0.29962773    -0.60000
O161        O  0.22958464  0.40835472  0.24697011    -0.72500
O162        O  0.23520956  0.25928704  0.24277497    -0.71300
Cu163      Cu  0.29522270  0.33927600  0.23493519     1.04600
Cu164      Cu  0.23019613  0.33371156  0.24524994     1.04300
C165        C  0.26622617  0.23869538  0.23523158     0.95000
C166        C  0.25929067  0.43432197  0.24427976     0.94100
C167        C  0.27427336  0.33502588  0.31232135     0.86300
C168        C  0.25085620  0.33826627  0.16801348     0.92500
C169        C  0.28059943  0.33620728  0.35275710    -0.14700
C170        C  0.25215706  0.33781218  0.37691050    -0.29900
H171        H  0.30905109  0.33636412  0.36278584     0.14300
H172        H  0.22374645  0.33740909  0.36675068     0.14900
C173        C  0.27199561  0.33635673  0.10310936    -0.14700
C174        C  0.24402253  0.33742461  0.12773872    -0.29900
H175        H  0.30060136  0.33705139  0.11270647     0.14300
H176        H  0.21539736  0.33626298  0.11821556     0.14900
C177        C  0.97814308  0.32600374  0.37970897    -0.14700
C178        C  0.00830468  0.32897580  0.40163588    -0.29900
H179        H  0.45367270  0.33748830  0.36204293     0.14300
H180        H  0.03564100  0.33290611  0.38914288     0.14900
C181        C  0.98699369  0.33012136  0.15055233    -0.14700
C182        C  0.01808537  0.32495914  0.13018302    -0.29900
H183        H  0.96036858  0.33325528  0.13663266     0.14300
H184        H  0.47107678  0.34676907  0.11059347     0.14900
C185        C  0.28713659  0.51826993  0.24987683    -0.14700
C186        C  0.25686495  0.48889070  0.24703171    -0.29900
H187        H  0.31457807  0.50186807  0.25053274     0.14300
H188        H  0.22938789  0.50520804  0.24710413     0.14900
C189        C  0.25112881  0.48267587  0.99151578    -0.14700
C190        C  0.28146743  0.51197633  0.99441035    -0.29900
H191        H  0.22904031  0.50705671  0.49353253     0.14300
H192        H  0.30884595  0.49542059  0.99521240     0.14900
C193        C  0.29600973  0.67803239  0.38997179    -0.14700
C194        C  0.26783217  0.67337915  0.36567870    -0.29900
H195        H  0.32440497  0.68134174  0.38000812     0.14300
H196        H  0.23946503  0.67027328  0.37576807     0.14900
C197        C  0.26520823  0.66096527  0.11595093    -0.14700
C198        C  0.29434743  0.66701811  0.13894609    -0.29900
H199        H  0.23728767  0.65751727  0.12715996     0.14300
H200        H  0.32226166  0.67075645  0.12777456     0.14900
C201        C  0.47686205  0.52151112  0.23833502    -0.14700
C202        C  0.98881624  0.48248800  0.26904351    -0.29900
H203        H  0.93115697  0.49500510  0.26678280     0.14300
H204        H  0.53436196  0.51130136  0.24587305     0.14900
C205        C  0.49950285  0.52373248  0.98835310    -0.14700
C206        C  0.02118578  0.47648891  0.01939085    -0.29900
H207        H  0.96357277  0.48865467  0.02340799     0.14300
H208        H  0.46019888  0.51111788  0.48942548     0.14900
C209        C  0.47656372  0.67707035  0.35334836    -0.14700
C210        C  0.50726085  0.68105788  0.37449677    -0.29900
H211        H  0.44946301  0.67472576  0.36653437     0.14300
H212        H  0.02295088  0.66136640  0.39343317     0.14900
C213        C  0.47860610  0.67496458  0.12374058    -0.14700
C214        C  0.50961923  0.67685345  0.10298872    -0.29900
H215        H  0.45163723  0.67415736  0.11020938     0.14300
H216        H  0.02432874  0.66005832  0.15057745     0.14900
C217        C  0.24526149  0.15340348  0.24806063    -0.14700
C218        C  0.26840048  0.18437088  0.23042644    -0.29900
H219        H  0.22539949  0.16798065  0.26807263     0.14300
H220        H  0.29053936  0.16935144  0.21320365     0.14900
C221        C  0.25795951  0.84938637  0.22898501    -0.14700
C222        C  0.27780773  0.82331734  0.25336219    -0.29900
H223        H  0.24378193  0.83046073  0.20613146     0.14300
H224        H  0.29483410  0.84264151  0.27397775     0.14900
C225        C  0.25185391  0.15836653  0.50743578    -0.14700
C226        C  0.27313777  0.18741878  0.48598870    -0.29900
H227        H  0.22539486  0.16621326  0.03799795     0.14300
H228        H  0.29330668  0.17089842  0.46716144     0.14900
C229        C  0.25317695  0.85398813  0.48783991    -0.14700
C230        C  0.27295374  0.82622015  0.51106654    -0.29900
H231        H  0.23883984  0.83664691  0.46440466     0.14300
H232        H  0.29398550  0.83529063  0.02819361     0.14900
C233        C  0.00471363  0.14830187  0.27658901    -0.14700
C234        C  0.98039492  0.17685215  0.25871583    -0.29900
H235        H  0.52348780  0.17727472  0.28612071     0.14300
H236        H  0.95817272  0.15964856  0.24251969     0.14900
C237        C  0.50045786  0.85430764  0.26187211    -0.14700
C238        C  0.47992144  0.82720041  0.23788491    -0.29900
H239        H  0.01738954  0.82496015  0.24037757     0.14300
H240        H  0.46141646  0.84545762  0.21869078     0.14900
C241        C  0.36704402  0.00922531  0.23550988    -0.14700
C242        C  0.38858176  0.00946851  0.26608160    -0.29900
H243        H  0.37995931  0.00983750  0.20821293     0.14300
H244        H  0.37577876  0.00890347  0.29342533     0.14900
C245        C  0.13761837  0.99568198  0.23697229    -0.14700
C246        C  0.11694105  0.99352045  0.26810261    -0.29900
H247        H  0.12401592  0.99793258  0.21011458     0.14300
H248        H  0.13053923  0.99133472  0.29496097     0.14900
C249        C  0.02189419  0.17596575  0.51167458    -0.14700
C250        C  0.99866338  0.14455519  0.52874807    -0.29900
H251        H  0.03146004  0.15292947  0.03401099     0.14300
H252        H  0.47493388  0.17722243  0.52589348     0.14900
C253        C  0.49091102  0.85580199  0.96815331    -0.14700
C254        C  0.51512544  0.82890635  0.98760646    -0.29900
H255        H  0.53040636  0.84853473  0.45432630     0.14300
H256        H  0.02502194  0.82867943  0.03966267     0.14900
C257        C  0.36665774  0.00724541  0.50283910    -0.14700
C258        C  0.38986528  0.00881219  0.47354839    -0.29900
H259        H  0.37797380  0.00601316  0.53080007     0.14300
H260        H  0.36232597  0.00614581  0.94869852     0.14900
C261        C  0.13838741  0.00272056  0.49474559    -0.14700
C262        C  0.11656599  0.99658317  0.52483727    -0.29900
H263        H  0.12586608  0.00650617  0.46747924     0.14300
H264        H  0.11766364  0.99034134  0.95452727     0.14900
O265        O  0.50122408  0.93411928  0.51357516    -0.71200
O266        O  0.49389052  0.08143485  0.52811755    -0.72200
O267        O  0.44345938  0.00440540  0.51193847    -0.60800
O268        O  0.05535589  0.99041709  0.55061342    -0.69200
O269        O  0.04457932  0.98797860  0.95738204    -0.68800
O270        O  0.43358436  0.00744388  0.94219711    -0.60000
O271        O  0.98941923  0.06365954  0.96120571    -0.72500
O272        O  0.98699829  0.91434918  0.96460358    -0.71300
Cu273      Cu  0.49751704  0.00748487  0.52302619     1.04600
Cu274      Cu  0.98853844  0.98882761  0.96070192     1.04300
C275        C  0.50784621  0.91593242  0.48125891     0.95000
C276        C  0.99324874  0.08872572  0.99138982     0.94100
C277        C  0.43053541  0.00915427  0.47917492     0.86300
C278        C  0.07563693  0.99507489  0.52158106     0.92500
O279        O  0.05372913  0.98759977  0.72767007    -0.71200
O280        O  0.44493661  0.00642100  0.70077919    -0.72200
O281        O  0.50056098  0.08070649  0.71541912    -0.60800
O282        O  0.99873890  0.91239504  0.72374652    -0.69200
O283        O  0.99166272  0.91433260  0.78505504    -0.68800
O284        O  0.99209941  0.06390206  0.78364449    -0.60000
O285        O  0.43612445  0.99848245  0.76145898    -0.72500
O286        O  0.04810116  0.98955933  0.78910548    -0.71300
Cu287      Cu  0.50077357  0.00665714  0.70690186     1.04600
Cu288      Cu  0.99203808  0.98923712  0.78661846     1.04300
C289        C  0.06842320  0.98894477  0.75994549     0.95000
C290        C  0.42314070  0.00238758  0.72866989     0.94100
C291        C  0.99553596  0.08595532  0.75260168     0.86300
C292        C  0.99524592  0.88989158  0.75454149     0.92500
O293        O  0.29796571  0.99917988  0.97632314    -0.71200
O294        O  0.18582496  0.99719388  0.97838397    -0.72200
O295        O  0.24227021  0.07258819  0.98086591    -0.60800
O296        O  0.24147946  0.92410700  0.97287172    -0.69200
O297        O  0.25351778  0.92899711  0.52381621    -0.68800
O298        O  0.24976176  0.07774896  0.53318189    -0.60000
O299        O  0.19599814  0.00041574  0.52760267    -0.72500
O300        O  0.30706654  0.00593377  0.52994077    -0.71300
Cu301      Cu  0.24186767  0.99843465  0.97497004     1.04600
Cu302      Cu  0.25156264  0.00311279  0.53076553     1.04300
C303        C  0.31621484  0.99928830  0.00685772     0.95000
C304        C  0.16933506  0.99247280  0.00966625     0.94100
C305        C  0.24134819  0.09405179  0.01273141     0.86300
C306        C  0.24416655  0.89819756  0.00209036     0.92500
O307        O  0.24094101  0.06756486  0.77829000    -0.71200
O308        O  0.24601173  0.91918587  0.76870991    -0.72200
O309        O  0.29874291  0.99648451  0.77750554    -0.60800
O310        O  0.18794138  0.99010777  0.76949197    -0.69200
O311        O  0.19234285  0.99973686  0.70847807    -0.68800
O312        O  0.30354160  0.99876480  0.71601821    -0.60000
O313        O  0.24700571  0.92479030  0.70719403    -0.72500
O314        O  0.24908821  0.07371741  0.71733960    -0.71300
Cu315      Cu  0.24325016  0.99311920  0.77563543     1.04600
Cu316      Cu  0.24812893  0.99948537  0.71007718     1.04300
C317        C  0.24491468  0.09400668  0.74938739     0.95000
C318        C  0.24695457  0.89863909  0.73649789     0.94100
C319        C  0.31860118  0.99805619  0.74814036     0.86300
C320        C  0.17262589  0.99443388  0.73770457     0.92500
O321        O  0.03396686  0.59281679  0.52170334    -0.71200
O322        O  0.02024196  0.73964357  0.52052569    -0.72200
O323        O  0.02710020  0.66773019  0.57740206    -0.60800
O324        O  0.02915672  0.65478375  0.96629328    -0.69200
O325        O  0.47760027  0.67603284  0.93236658    -0.68800
O326        O  0.47526995  0.67178030  0.54517784    -0.60000
O327        O  0.46925791  0.74817196  0.49289002    -0.72500
O328        O  0.47376424  0.60425657  0.98887500    -0.71300
Cu329      Cu  0.02902067  0.66651031  0.52129882     1.04600
Cu330      Cu  0.47550043  0.67854123  0.98819185     1.04300
C331        C  0.51317733  0.58206929  0.48721944     0.95000
C332        C  0.49795717  0.77622548  0.49302558     0.94100
C333        C  0.50595487  0.67652440  0.56278059     0.86300
C334        C  0.50842225  0.67377738  0.91478278     0.92500
O335        O  0.44608553  0.66785549  0.68343545    -0.71200
O336        O  0.44705872  0.66562614  0.79514431    -0.72200
O337        O  0.44457706  0.74106828  0.74170488    -0.60800
O338        O  0.44840974  0.59217155  0.73771973    -0.69200
O339        O  0.99399470  0.57914779  0.76901838    -0.68800
O340        O  0.00229048  0.72871737  0.77314254    -0.60000
O341        O  0.99903613  0.65204998  0.82738233    -0.72500
O342        O  0.99807081  0.65586425  0.71549503    -0.71300
Cu343      Cu  0.44439075  0.66651258  0.73942707     1.04600
Cu344      Cu  0.00053147  0.65372925  0.77126167     1.04300
C345        C  0.47669684  0.66922235  0.66546741     0.95000
C346        C  0.47797378  0.66848575  0.81241745     0.94100
C347        C  0.47470911  0.76636862  0.74105683     0.86300
C348        C  0.47974449  0.57038299  0.73786146     0.92500
O349        O  0.25059094  0.66598297  0.94419867    -0.71200
O350        O  0.23962402  0.66939290  0.55313216    -0.72200
O351        O  0.24526932  0.74651289  0.50000148    -0.60800
O352        O  0.25143136  0.59729478  0.49606906    -0.69200
O353        O  0.30906455  0.59208677  0.00129845    -0.68800
O354        O  0.30577247  0.75066985  0.51171815    -0.60000
O355        O  0.30056598  0.67221131  0.56230103    -0.72500
O356        O  0.31184490  0.67125819  0.95037557    -0.71300
Cu357      Cu  0.24607105  0.67166583  0.49776450     1.04600
Cu358      Cu  0.30885540  0.66669841  0.00583066     1.04300
C359        C  0.28296306  0.66949500  0.92985586     0.95000
C360        C  0.26748545  0.66961189  0.57503475     0.94100
C361        C  0.27293729  0.76241469  0.00829916     0.86300
C362        C  0.28308099  0.57657481  0.49915069     0.92500
O363        O  0.24139663  0.73794524  0.74782344    -0.71200
O364        O  0.24563613  0.58854345  0.74858397    -0.72200
O365        O  0.23607692  0.66444430  0.80377169    -0.60800
O366        O  0.25063408  0.66244912  0.69330536    -0.69200
O367        O  0.31164784  0.66809843  0.70146663    -0.68800
O368        O  0.29720254  0.66699591  0.81161430    -0.60000
O369        O  0.30680415  0.59308547  0.75556632    -0.72500
O370        O  0.30218794  0.74168175  0.75800464    -0.71300
Cu371      Cu  0.24125205  0.66315041  0.74811795     1.04600
Cu372      Cu  0.30656297  0.66755231  0.75691288     1.04300
C373        C  0.27118702  0.76320435  0.75319293     0.95000
C374        C  0.27709770  0.56733085  0.75170035     0.94100
C375        C  0.26438714  0.66615408  0.82510886     0.86300
C376        C  0.28346855  0.66551652  0.68001820     0.92500
O377        O  0.03373771  0.33087919  0.57257727    -0.71200
O378        O  0.04535957  0.32249203  0.95889775    -0.72200
O379        O  0.04878160  0.39709441  0.01582274    -0.60800
O380        O  0.04388634  0.25948100  0.51422064    -0.69200
O381        O  0.47631216  0.26651155  0.48723552    -0.68800
O382        O  0.49349603  0.41798910  0.98558679    -0.60000
O383        O  0.49803951  0.34217203  0.93045625    -0.72500
O384        O  0.46581362  0.34017285  0.54294114    -0.71300
Cu385      Cu  0.04885286  0.32264844  0.01500343     1.04600
Cu386      Cu  0.46782814  0.34007058  0.48724110     1.04300
C387        C  0.00312856  0.32434577  0.58986282     0.95000
C388        C  0.01423703  0.32446301  0.94192154     0.94100
C389        C  0.99196209  0.42251387  0.51815791     0.86300
C390        C  0.01368944  0.22561871  0.01387634     0.92500
O391        O  0.00639724  0.31790535  0.70963479    -0.71200
O392        O  0.01085023  0.32001599  0.82141277    -0.72200
O393        O  0.00518513  0.24463998  0.76541848    -0.60800
O394        O  0.01247022  0.39289772  0.76535962    -0.69200
O395        O  0.48230358  0.40997099  0.73800915    -0.68800
O396        O  0.48515883  0.26063603  0.73761118    -0.60000
O397        O  0.48071416  0.33603901  0.79326700    -0.72500
O398        O  0.48700931  0.33519652  0.68207869    -0.71300
Cu399      Cu  0.01079403  0.31865071  0.76536286     1.04600
Cu400      Cu  0.48164176  0.33529080  0.73765949     1.04300
C401        C  0.97496876  0.31871376  0.69315636     0.95000
C402        C  0.98086663  0.32397378  0.84026031     0.94100
C403        C  0.97358653  0.22312525  0.76826010     0.86300
C404        C  0.98305577  0.41889294  0.76574103     0.92500
O405        O  0.30249336  0.34153536  0.54215062    -0.71200
O406        O  0.27834901  0.33013290  0.93125624    -0.72200
O407        O  0.28434579  0.40606146  0.98674604    -0.60800
O408        O  0.29998893  0.26828435  0.48395072    -0.69200
O409        O  0.23914865  0.26219870  0.49322294    -0.68800
O410        O  0.22308190  0.40269123  0.99312320    -0.60000
O411        O  0.21736181  0.32441729  0.93930530    -0.72500
O412        O  0.24126211  0.33715073  0.54871692    -0.71300
Cu413      Cu  0.28796340  0.33139112  0.98587640     1.04600
Cu414      Cu  0.23306036  0.33612990  0.49386430     1.04300
C415        C  0.27374130  0.33920841  0.56289764     0.95000
C416        C  0.24560505  0.32652157  0.91784105     0.94100
C417        C  0.26041686  0.43723722  0.49234133     0.86300
C418        C  0.25740567  0.23159628  0.99147709     0.92500
O419        O  0.29286583  0.25897562  0.73303590    -0.71200
O420        O  0.28554877  0.40776793  0.74166207    -0.72200
O421        O  0.29392730  0.32961782  0.79283008    -0.60800
O422        O  0.28493263  0.33717165  0.68218859    -0.69200
O423        O  0.22378399  0.32833478  0.68716497    -0.68800
O424        O  0.23255807  0.32579328  0.79831577    -0.60000
O425        O  0.22415957  0.40129463  0.74491111    -0.72500
O426        O  0.23185015  0.25279248  0.74096710    -0.71300
Cu427      Cu  0.29147738  0.33360751  0.73729328     1.04600
Cu428      Cu  0.22594723  0.32680588  0.74297428     1.04300
C429        C  0.26343033  0.23250959  0.73602490     0.95000
C430        C  0.25362812  0.42796771  0.74438260     0.94100
C431        C  0.26483145  0.32712859  0.81303916     0.86300
C432        C  0.25288340  0.33345051  0.66720075     0.92500
C433        C  0.26922339  0.32638788  0.85368530    -0.14700
C434        C  0.24022471  0.32513314  0.87721673    -0.29900
H435        H  0.29737282  0.32778087  0.86452884     0.14300
H436        H  0.21202306  0.32366363  0.86653096     0.14900
C437        C  0.27827882  0.33872960  0.60357477    -0.14700
C438        C  0.24894263  0.33484557  0.62652323    -0.29900
H439        H  0.30624948  0.34116299  0.61479680     0.14300
H440        H  0.22102859  0.33212783  0.61518834     0.14900
C441        C  0.98184969  0.32556469  0.88132703    -0.14700
C442        C  0.01370564  0.32415479  0.90081215    -0.29900
H443        H  0.47893685  0.33822805  0.86465505     0.14300
H444        H  0.04012549  0.32217515  0.88629143     0.14900
C445        C  0.97313945  0.31860573  0.65202205    -0.14700
C446        C  0.00383343  0.32326823  0.63094391    -0.29900
H447        H  0.94602489  0.31574929  0.63891149     0.14300
H448        H  0.46419109  0.33918635  0.61531239     0.14900
C449        C  0.27996029  0.51269870  0.75036352    -0.14700
C450        C  0.25022714  0.48252160  0.74678836    -0.29900
H451        H  0.30755791  0.49691692  0.75201106     0.14300
H452        H  0.22254777  0.49814270  0.74571015     0.14900
C453        C  0.25682858  0.49170866  0.49403224    -0.14700
C454        C  0.28644771  0.52211522  0.49701689    -0.29900
H455        H  0.22373154  0.49922541  0.99142417     0.14300
H456        H  0.31417060  0.50665433  0.49832467     0.14900
C457        C  0.28767636  0.67081020  0.88927917    -0.14700
C458        C  0.25889345  0.66698644  0.86566658    -0.29900
H459        H  0.31582154  0.67392526  0.87858357     0.14300
H460        H  0.23070545  0.66401089  0.87625695     0.14900
C461        C  0.26111006  0.66693225  0.61535063    -0.14700
C462        C  0.28940172  0.66663663  0.63962231    -0.29900
H463        H  0.23259726  0.66559186  0.62522904     0.14300
H464        H  0.31788733  0.66817182  0.62968110     0.14900
C465        C  0.48038268  0.51557920  0.73779574    -0.14700
C466        C  0.98697898  0.47349235  0.76583000    -0.29900
H467        H  0.92972213  0.48847795  0.76600517     0.14300
H468        H  0.53849249  0.50941286  0.74242964     0.14900
C469        C  0.51754996  0.52782151  0.48757016    -0.14700
C470        C  0.98467417  0.47627020  0.51898343    -0.29900
H471        H  0.04096027  0.49769373  0.52135784     0.14300
H472        H  0.55678671  0.50951083  0.99154082     0.14900
C473        C  0.47768757  0.66953484  0.85344393    -0.14700
C474        C  0.50899109  0.67190866  0.87374400    -0.29900
H475        H  0.45085780  0.66866825  0.86727771     0.14300
H476        H  0.02625281  0.65225804  0.89353640     0.14900
C477        C  0.47578069  0.67015115  0.62442115    -0.14700
C478        C  0.50676474  0.67485156  0.60379917    -0.29900
H479        H  0.44885056  0.66756323  0.61090371     0.14300
H480        H  0.02454947  0.66330851  0.64992973     0.14900
C481        C  0.24378809  0.14841420  0.75320205    -0.14700
C482        C  0.26589012  0.17807143  0.73306784    -0.29900
H483        H  0.22532790  0.16443358  0.77395694     0.14300
H484        H  0.28687249  0.16206263  0.71490972     0.14900
C485        C  0.24792289  0.84419880  0.73314340    -0.14700
C486        C  0.27001168  0.81770543  0.75514008    -0.29900
H487        H  0.23171774  0.82586131  0.71140965     0.14300
H488        H  0.28891242  0.83673967  0.77421545     0.14900
C489        C  0.24040037  0.14878179  0.01516039    -0.14700
C490        C  0.25884813  0.17692983  0.99060318    -0.29900
H491        H  0.23427730  0.17493273  0.52872174     0.14300
H492        H  0.27671118  0.15937776  0.97001349     0.14900
C493        C  0.24443662  0.84381540  0.99824084    -0.14700
C494        C  0.27147440  0.81677426  0.01323380    -0.29900
H495        H  0.22383663  0.82613214  0.98028071     0.14300
H496        H  0.29033326  0.84409142  0.53210267     0.14900
C497        C  0.99645140  0.14042903  0.75140372    -0.14700
C498        C  0.97161877  0.16852586  0.76965565    -0.29900
H499        H  0.47406917  0.17040382  0.77149891     0.14300
H500        H  0.94895296  0.15113853  0.78476209     0.14900
C501        C  0.49683235  0.85043861  0.72613353    -0.14700
C502        C  0.47294892  0.82082859  0.74414490    -0.29900
H503        H  0.01140324  0.81607598  0.73288627     0.14300
H504        H  0.45088420  0.83702939  0.76084986     0.14900
C505        C  0.35920712  0.99890649  0.75212729    -0.14700
C506        C  0.38259478  0.00206997  0.72309025    -0.29900
H507        H  0.37014971  0.99691140  0.78020295     0.14300
H508        H  0.37188216  0.00439121  0.69495727     0.14900
C509        C  0.13185358  0.99322029  0.73421283    -0.14700
C510        C  0.10919542  0.98990515  0.76383323    -0.29900
H511        H  0.12021610  0.99541852  0.70643536     0.14300
H512        H  0.12076358  0.98839914  0.79166863     0.14900
C513        C  0.01316707  0.17100541  0.01451848    -0.14700
C514        C  0.99318377  0.14347496  0.99029272    -0.29900
H515        H  0.04539565  0.16191211  0.49589924     0.14300
H516        H  0.47408148  0.17995918  0.94925764     0.14900
C517        C  0.51215460  0.86209744  0.47621791    -0.14700
C518        C  0.49309430  0.82999364  0.49707874    -0.29900
H519        H  0.47084866  0.83720114  0.95008364     0.14300
H520        H  0.96199329  0.82751116  0.54158199     0.14900
C521        C  0.35728216  0.00148439  0.00675504    -0.14700
C522        C  0.37686531  0.00502565  0.97512276    -0.29900
H523        H  0.37164394  0.00024517  0.03326810     0.14300
H524        H  0.37897430  0.01063671  0.44546072     0.14900
C525        C  0.12843392  0.99045031  0.01216458    -0.14700
C526        C  0.10593082  0.98988301  0.98235055    -0.29900
H527        H  0.11646074  0.98941816  0.03988152     0.14300
H528        H  0.12886947  0.99281768  0.55219517     0.14900
O529        O  0.99372106  0.91751687  0.02592022    -0.71200
O530        O  0.99665213  0.06680850  0.02245613    -0.72200
O531        O  0.93933317  0.99377562  0.02957799    -0.60800
O532        O  0.54912195  0.00980276  0.99639517    -0.69200
O533        O  0.56295692  0.02041320  0.46979912    -0.68800
O534        O  0.95069197  0.99652442  0.47915767    -0.60000
O535        O  0.50512609  0.09121462  0.46793384    -0.72500
O536        O  0.51155078  0.94402709  0.45325298    -0.71300
Cu537      Cu  0.99524355  0.99234040  0.02631318     1.04600
Cu538      Cu  0.50832055  0.01797984  0.45846069     1.04300
C539        C  0.98945961  0.89247962  0.99574572     0.95000
C540        C  0.49814374  0.10944649  0.50013927     0.94100
C541        C  0.91890495  0.99223295  0.00055343     0.86300
C542        C  0.56443122  0.00917885  0.96432440     0.92500
O543        O  0.55820421  0.00397590  0.22804263    -0.71200
O544        O  0.94631444  0.99641933  0.23762623    -0.72200
O545        O  0.00120033  0.07273689  0.24130615    -0.60800
O546        O  0.49939742  0.93174278  0.23049483    -0.69200
O547        O  0.50325056  0.93309471  0.29208608    -0.68800
O548        O  0.50706833  0.08204878  0.29192257    -0.60000
O549        O  0.94622882  0.99632604  0.29927477    -0.72500
O550        O  0.56017062  0.00588666  0.28969225    -0.71300
Cu551      Cu  0.00215697  0.99818357  0.23520735     1.04600
Cu552      Cu  0.50472921  0.00765186  0.29404794     1.04300
C553        C  0.57679010  0.00433498  0.25834980     0.95000
C554        C  0.92861599  0.99618540  0.26846014     0.94100
C555        C  0.50692346  0.10510787  0.26119348     0.86300
C556        C  0.50082748  0.90896715  0.26137812     0.92500
O557        O  0.81238311  0.99056124  0.48758924    -0.71200
O558        O  0.70368174  0.00118239  0.46516286    -0.72200
O559        O  0.76467648  0.06868550  0.46960994    -0.60800
O560        O  0.75253229  0.92248480  0.48290040    -0.69200
O561        O  0.74180768  0.92504838  0.01603347    -0.68800
O562        O  0.74560713  0.07405250  0.01025523    -0.60000
O563        O  0.68799916  0.00219833  0.01673951    -0.72500
O564        O  0.79918088  0.99727750  0.01006461    -0.71300
Cu565      Cu  0.75866845  0.99524651  0.47424596     1.04600
Cu566      Cu  0.74373560  0.99981978  0.01545908     1.04300
C567        C  0.82387571  0.99500744  0.52107457     0.95000
C568        C  0.68075411  0.00885260  0.49170978     0.94100
C569        C  0.76011784  0.09791112  0.49737719     0.86300
C570        C  0.74435641  0.90514380  0.51474794     0.92500
O571        O  0.75422328  0.07109944  0.26158847    -0.71200
O572        O  0.74825327  0.92167154  0.26497250    -0.72200
O573        O  0.80750460  0.99386446  0.26633375    -0.60800
O574        O  0.69599707  0.99931556  0.26059152    -0.69200
O575        O  0.69868002  0.99507561  0.19904581    -0.68800
O576        O  0.81039728  0.99055416  0.20473712    -0.60000
O577        O  0.75279755  0.91831698  0.20343823    -0.72500
O578        O  0.75781301  0.06708093  0.20001961    -0.71300
Cu579      Cu  0.75138519  0.99657724  0.26553373     1.04600
Cu580      Cu  0.75492609  0.99258039  0.19967935     1.04300
C581        C  0.75724336  0.09250489  0.23022211     0.95000
C582        C  0.74975178  0.89657400  0.23457912     0.94100
C583        C  0.82655110  0.99196854  0.23631484     0.86300
C584        C  0.67970118  0.99799151  0.22905185     0.92500
O585        O  0.53524258  0.59931777  0.98811056    -0.71200
O586        O  0.54267915  0.74884706  0.98887188    -0.72200
O587        O  0.53936244  0.67465203  0.04412553    -0.60800
O588        O  0.53672357  0.68475630  0.43346106    -0.69200
O589        O  0.96509549  0.65588021  0.46607460    -0.68800
O590        O  0.96674124  0.66371257  0.07769869    -0.60000
O591        O  0.97052748  0.73477761  0.01945046    -0.72500
O592        O  0.97286118  0.58122246  0.52087966    -0.71300
Cu593      Cu  0.54128445  0.67386184  0.98835685     1.04600
Cu594      Cu  0.96358797  0.65501132  0.52212928     1.04300
C595        C  0.99385244  0.56016935  0.02280319     0.95000
C596        C  0.00235459  0.75614758  0.02093043     0.94100
C597        C  0.99729054  0.66136072  0.09568116     0.86300
C598        C  0.99564884  0.66007018  0.44817830     0.92500
O599        O  0.93618827  0.66938038  0.21614479    -0.71200
O600        O  0.93502827  0.66368953  0.32788138    -0.72200
O601        O  0.93937003  0.74112021  0.27564791    -0.60800
O602        O  0.93203232  0.59207252  0.26922576    -0.69200
O603        O  0.50915557  0.59973329  0.23841971    -0.68800
O604        O  0.51032694  0.74916983  0.24002319    -0.60000
O605        O  0.50908861  0.67489346  0.29504154    -0.72500
O606        O  0.51002407  0.67455750  0.18270923    -0.71300
Cu607      Cu  0.93350916  0.66677497  0.27213323     1.04600
Cu608      Cu  0.51183379  0.67452092  0.23902447     1.04300
C609        C  0.96691878  0.66657545  0.19846699     0.95000
C610        C  0.96568604  0.66177887  0.34556235     0.94100
C611        C  0.97122351  0.76237474  0.27549654     0.86300
C612        C  0.96167852  0.56641111  0.26935098     0.92500
O613        O  0.72242272  0.67120506  0.44700814    -0.71200
O614        O  0.72010588  0.66824693  0.05965159    -0.72200
O615        O  0.72363674  0.74193617  0.00361692    -0.60800
O616        O  0.71626417  0.59371776  0.00326797    -0.69200
O617        O  0.77729355  0.59095946  0.50366157    -0.68800
O618        O  0.78512552  0.73750330  0.00588560    -0.60000
O619        O  0.78148023  0.66157161  0.05942063    -0.72500
O620        O  0.78371875  0.66346623  0.44794837    -0.71300
Cu621      Cu  0.71793192  0.66791251  0.00350722     1.04600
Cu622      Cu  0.78442924  0.66486709  0.50368607     1.04300
C623        C  0.75340012  0.66675739  0.42987263     0.95000
C624        C  0.75086188  0.66466820  0.07716069     0.94100
C625        C  0.75823038  0.76588110  0.50286967     0.86300
C626        C  0.74556796  0.56748631  0.00250861     0.92500
O627        O  0.69335636  0.73834085  0.25656584    -0.71200
O628        O  0.69252468  0.58869556  0.25266463    -0.72200
O629        O  0.69332360  0.66243697  0.30992649    -0.60800
O630        O  0.69188919  0.66485946  0.19853324    -0.69200
O631        O  0.75346540  0.66301404  0.19728048    -0.68800
O632        O  0.75495645  0.66387923  0.30927779    -0.60000
O633        O  0.75413519  0.58865870  0.25258357    -0.72500
O634        O  0.75492668  0.73787971  0.25338302    -0.71300
Cu635      Cu  0.69063299  0.66352475  0.25441836     1.04600
Cu636      Cu  0.75652902  0.66332961  0.25313766     1.04300
C637        C  0.72440501  0.76158800  0.25527504     0.95000
C638        C  0.72316842  0.56510963  0.25223178     0.94100
C639        C  0.72423593  0.66338525  0.32719713     0.86300
C640        C  0.72231459  0.66423056  0.18028271     0.92500
O641        O  0.54139371  0.34190676  0.04994238    -0.71200
O642        O  0.53500517  0.35165708  0.43657014    -0.72200
O643        O  0.52505335  0.42379723  0.49310383    -0.60800
O644        O  0.54685370  0.26478908  0.99597165    -0.69200
O645        O  0.98330593  0.24980400  0.01352855    -0.68800
O646        O  0.96447776  0.39238918  0.51663516    -0.60000
O647        O  0.97540466  0.32001556  0.45942329    -0.72500
O648        O  0.98619677  0.32357410  0.07177087    -0.71300
Cu649      Cu  0.53326151  0.35049028  0.49191998     1.04600
Cu650      Cu  0.98299179  0.32483611  0.01593990     1.04300
C651        C  0.50800297  0.34370042  0.06207855     0.95000
C652        C  0.50597567  0.34584770  0.41663450     0.94100
C653        C  0.52524386  0.43908291  0.98975296     0.86300
C654        C  0.50902337  0.24853652  0.48764564     0.92500
O655        O  0.54441245  0.33874185  0.19121807    -0.71200
O656        O  0.52238263  0.33960891  0.29971344    -0.72200
O657        O  0.53023473  0.26412744  0.24490991    -0.60800
O658        O  0.53532127  0.41399741  0.24638856    -0.69200
O659        O  0.95498072  0.40536991  0.26668660    -0.68800
O660        O  0.95157056  0.25591399  0.26040844    -0.60000
O661        O  0.95073728  0.32783456  0.31966612    -0.72500
O662        O  0.95544505  0.33310391  0.20825964    -0.71300
Cu663      Cu  0.53518154  0.33898252  0.24599345     1.04600
Cu664      Cu  0.95105251  0.33066810  0.26374179     1.04300
C665        C  0.51784898  0.34168855  0.16799605     0.95000
C666        C  0.48897993  0.33986189  0.31158631     0.94100
C667        C  0.49939608  0.24249039  0.23702138     0.86300
C668        C  0.50557957  0.43869812  0.24172859     0.92500
O669        O  0.78845575  0.32231778  0.05171264    -0.71200
O670        O  0.77706939  0.32860809  0.44054454    -0.72200
O671        O  0.79220547  0.40381525  0.49446571    -0.60800
O672        O  0.77453356  0.25076483  0.99436893    -0.69200
O673        O  0.71415763  0.26237228  0.00324845    -0.68800
O674        O  0.73142624  0.41293841  0.50180496    -0.60000
O675        O  0.71634404  0.33577954  0.44951661    -0.72500
O676        O  0.72799804  0.33545217  0.05811671    -0.71300
Cu677      Cu  0.78731975  0.32966498  0.49531861     1.04600
Cu678      Cu  0.72059076  0.33623968  0.00299859     1.04300
C679        C  0.75991351  0.32809340  0.07236123     0.95000
C680        C  0.74412325  0.33184050  0.42766528     0.94100
C681        C  0.76405756  0.42729019  0.00055526     0.86300
C682        C  0.74621322  0.23775807  0.50396760     0.92500
O683        O  0.77778383  0.25304185  0.24539983    -0.71200
O684        O  0.78178885  0.40307461  0.24569701    -0.72200
O685        O  0.78750272  0.32874709  0.30069633    -0.60800
O686        O  0.77312946  0.32730457  0.19067085    -0.69200
O687        O  0.71197370  0.32782096  0.19834085    -0.68800
O688        O  0.72653582  0.33310572  0.30913842    -0.60000
O689        O  0.72057716  0.40486257  0.25246503    -0.72500
O690        O  0.71707934  0.25628437  0.25596138    -0.71300
Cu691      Cu  0.78219992  0.32796320  0.24531970     1.04600
Cu692      Cu  0.71691019  0.33058843  0.25418312     1.04300
C693        C  0.74664551  0.23126604  0.25127087     0.95000
C694        C  0.75166041  0.42754438  0.24896177     0.94100
C695        C  0.75945076  0.33113413  0.32229921     0.86300
C696        C  0.74041511  0.32730642  0.17706150     0.92500
C697        C  0.76571966  0.33127817  0.36271434    -0.14700
C698        C  0.73764178  0.33148819  0.38726650    -0.29900
H699        H  0.79427044  0.33089892  0.37245596     0.14300
H700        H  0.70908630  0.33205822  0.37756037     0.14900
C701        C  0.76437101  0.32630780  0.11296550    -0.14700
C702        C  0.73530074  0.32744188  0.13643687    -0.29900
H703        H  0.79245281  0.32388671  0.12377607     0.14300
H704        H  0.70716609  0.32912524  0.12567825     0.14900
C705        C  0.48205978  0.34042701  0.35201368    -0.14700
C706        C  0.51045926  0.34521491  0.37605620    -0.29900
H707        H  0.95072773  0.32294377  0.39214527     0.14300
H708        H  0.53868314  0.34881308  0.36564526     0.14900
C709        C  0.52666873  0.34216408  0.12802794    -0.14700
C710        C  0.50001727  0.34466312  0.10217823    -0.29900
H711        H  0.55563418  0.33987470  0.11974232     0.14300
H712        H  0.04481717  0.32204370  0.14391282     0.14900
C713        C  0.72221543  0.51021303  0.25149779    -0.14700
C714        C  0.75308021  0.48246859  0.24894380    -0.29900
H715        H  0.69517593  0.49216150  0.25310503     0.14300
H716        H  0.78012831  0.50041213  0.24696061     0.14900
C717        C  0.76999008  0.48162504  0.00087551    -0.14700
C718        C  0.74125004  0.51305286  0.00230965    -0.29900
H719        H  0.79723973  0.50058333  0.49544650     0.14300
H720        H  0.71305971  0.49840283  0.00331411     0.14900
C721        C  0.75464604  0.66530240  0.38885961    -0.14700
C722        C  0.72362525  0.66436186  0.36818799    -0.29900
H723        H  0.78168326  0.66458253  0.37543855     0.14300
H724        H  0.69663568  0.66455192  0.38172576     0.14900
C725        C  0.75179289  0.66398477  0.11820393    -0.14700
C726        C  0.72093747  0.66505465  0.13923294    -0.29900
H727        H  0.77884174  0.66222719  0.13145700     0.14300
H728        H  0.69384527  0.66653164  0.12605022     0.14900
C729        C  0.95871901  0.51164094  0.26822894    -0.14700
C730        C  0.50736985  0.49357110  0.24226755    -0.29900
H731        H  0.44983402  0.50367904  0.23528451     0.14300
H732        H  0.01633675  0.49925879  0.27049194     0.14900
C733        C  0.99108303  0.50543782  0.02222149    -0.14700
C734        C  0.52897062  0.49368489  0.98984742    -0.29900
H735        H  0.47165992  0.50791570  0.98719661     0.14300
H736        H  0.95598275  0.48832998  0.51810357     0.14900
C737        C  0.96487358  0.66030546  0.38661430    -0.14700
C738        C  0.99605530  0.66027180  0.40712248    -0.29900
H739        H  0.93793844  0.65987133  0.40025185     0.14300
H740        H  0.53431847  0.68388644  0.36126108     0.14900
C741        C  0.96646206  0.66681604  0.15732393    -0.14700
C742        C  0.99760115  0.66284288  0.13681658    -0.29900
H743        H  0.93971322  0.66955996  0.14360612     0.14300
H744        H  0.53661119  0.67725406  0.11646467     0.14900
C745        C  0.76076220  0.14700152  0.22851021    -0.14700
C746        C  0.74439213  0.17682935  0.25361661    -0.29900
H747        H  0.77542921  0.16302508  0.20509575     0.14300
H748        H  0.72664641  0.16097139  0.27489003     0.14900
C749        C  0.74899086  0.84194613  0.23502168    -0.14700
C750        C  0.72498765  0.81631670  0.25607231    -0.29900
H751        H  0.76706998  0.82222931  0.21576351     0.14300
H752        H  0.70420631  0.83579898  0.27245570     0.14900
C753        C  0.76455440  0.15150020  0.49207617    -0.14700
C754        C  0.74156371  0.18394648  0.50841238    -0.29900
H755        H  0.76793311  0.16334367  0.95307671     0.14300
H756        H  0.71829640  0.17060536  0.52486768     0.14900
C757        C  0.74013679  0.85125739  0.51902351    -0.14700
C758        C  0.76245928  0.81993592  0.50055088    -0.29900
H759        H  0.71952722  0.83718554  0.53836437     0.14300
H760        H  0.78167753  0.83540706  0.01959948     0.14900
C761        C  0.51064377  0.15968295  0.26192199    -0.14700
C762        C  0.49687185  0.18795439  0.23497215    -0.29900
H763        H  0.02463279  0.16518122  0.29570998     0.14300
H764        H  0.48086161  0.17097185  0.21250693     0.14900
C765        C  0.99894215  0.84337896  0.25998356    -0.14700
C766        C  0.97350339  0.81689440  0.27865354    -0.29900
H767        H  0.51599709  0.83594953  0.28350352     0.14300
H768        H  0.95263621  0.83593922  0.29522999     0.14900
C769        C  0.86759129  0.99192499  0.23720721    -0.14700
C770        C  0.88748927  0.99553617  0.26877763    -0.29900
H771        H  0.88190293  0.98949197  0.21065312     0.14300
H772        H  0.87337892  0.99779871  0.29544269     0.14900
C773        C  0.63860748  0.99974765  0.22721267    -0.14700
C774        C  0.61780965  0.00298776  0.25824831    -0.29900
H775        H  0.62533597  0.99813982  0.20011651     0.14300
H776        H  0.63139193  0.00445904  0.28520319     0.14900
C777        C  0.51420310  0.19484086  0.48464635    -0.14700
C778        C  0.49408638  0.16326318  0.50493999    -0.29900
H779        H  0.53345648  0.16967439  0.00952976     0.14300
H780        H  0.97729768  0.15881893  0.54727671     0.14900
C781        C  0.98630823  0.83787884  0.99656253    -0.14700
C782        C  0.00522027  0.81072989  0.02096122    -0.29900
H783        H  0.02353158  0.82601858  0.48239174     0.14300
H784        H  0.53753154  0.84731084  0.00277714     0.14900
C785        C  0.86405443  0.99266717  0.52907319    -0.14700
C786        C  0.88916098  0.99234016  0.50142279    -0.29900
H787        H  0.87310965  0.99286083  0.55786935     0.14300
H788        H  0.86663933  0.99719060  0.03244660     0.14900
C789        C  0.64079168  0.01246654  0.48337994    -0.14700
C790        C  0.61526938  0.01622910  0.51052537    -0.29900
H791        H  0.63214461  0.01041950  0.45447096     0.14300
H792        H  0.61702623  0.00777161  0.93293430     0.14900
O793        O  0.99937707  0.91544376  0.53944218    -0.71200
O794        O  0.99794713  0.06311205  0.55219577    -0.72200
O795        O  0.94337362  0.98855911  0.54006128    -0.60800
O796        O  0.55265605  0.01150148  0.53019523    -0.69200
O797        O  0.54464779  0.00890935  0.93487725    -0.68800
O798        O  0.93349884  0.98998950  0.96820803    -0.60000
O799        O  0.48846509  0.08294095  0.93913019    -0.72500
O800        O  0.48866991  0.93365385  0.93829952    -0.71300
Cu801      Cu  0.99890014  0.98904794  0.54778642     1.04600
Cu802      Cu  0.48876699  0.00827506  0.93653316     1.04300
C803        C  0.00329545  0.89603777  0.50711026     0.95000
C804        C  0.49105959  0.10680688  0.96995304     0.94100
C805        C  0.92960790  0.99240448  0.50748165     0.86300
C806        C  0.57509338  0.01632890  0.50297947     0.92500
O807        O  0.55543878  0.00599429  0.71749070    -0.71200
O808        O  0.94298412  0.98670988  0.71843730    -0.72200
O809        O  0.99907558  0.06125408  0.72230057    -0.60800
O810        O  0.50106691  0.93215363  0.70261781    -0.69200
O811        O  0.49038253  0.92402207  0.76303189    -0.68800
O812        O  0.49001573  0.07268332  0.77585350    -0.60000
O813        O  0.93676261  0.98915497  0.77983331    -0.72500
O814        O  0.54551246  0.99786072  0.77801707    -0.71300
Cu815      Cu  0.99872217  0.98683134  0.72092940     1.04600
Cu816      Cu  0.49025744  0.99800287  0.77167392     1.04300
C817        C  0.56777025  0.00151356  0.75055718     0.95000
C818        C  0.92242925  0.98856787  0.74737632     0.94100
C819        C  0.49514839  0.10006210  0.74759638     0.86300
C820        C  0.49582321  0.90476911  0.73082310     0.92500
O821        O  0.79502889  0.98824208  0.94878510    -0.71200
O822        O  0.68408386  0.00129879  0.95517840    -0.72200
O823        O  0.74532818  0.06847330  0.94860685    -0.60800
O824        O  0.73397058  0.92080467  0.95483986    -0.69200
O825        O  0.73973295  0.93400385  0.54279530    -0.68800
O826        O  0.75205140  0.08109545  0.52946628    -0.60000
O827        O  0.69213174  0.01301587  0.52523244    -0.72500
O828        O  0.80092354  0.00209224  0.54768847    -0.71300
Cu829      Cu  0.73944112  0.99448301  0.94970723     1.04600
Cu830      Cu  0.74585228  0.00797852  0.53844722     1.04300
C831        C  0.81461746  0.99166918  0.97831073     0.95000
C832        C  0.66852814  0.00318780  0.98712649     0.94100
C833        C  0.74698773  0.09453144  0.97844811     0.86300
C834        C  0.73677615  0.89961117  0.98616873     0.92500
O835        O  0.73948779  0.07146248  0.78675300    -0.71200
O836        O  0.73865192  0.92273853  0.77667566    -0.72200
O837        O  0.79482478  0.99582295  0.79167601    -0.60800
O838        O  0.68502848  0.99809071  0.77159644    -0.69200
O839        O  0.69631693  0.00410185  0.71116106    -0.68800
O840        O  0.80546458  0.00197942  0.73116141    -0.60000
O841        O  0.75102352  0.92875071  0.71642083    -0.72500
O842        O  0.75156101  0.07790505  0.72649199    -0.71300
Cu843      Cu  0.73920680  0.99686337  0.78382981     1.04600
Cu844      Cu  0.75148131  0.00345671  0.71922364     1.04300
C845        C  0.74513504  0.09810670  0.75821577     0.95000
C846        C  0.74457417  0.90237973  0.74495361     0.94100
C847        C  0.81746666  0.99782342  0.76432934     0.86300
C848        C  0.67342577  0.00144245  0.73818110     0.92500
O849        O  0.54211603  0.60982530  0.48790469    -0.71200
O850        O  0.53054062  0.75801162  0.49071248    -0.72200
O851        O  0.53642455  0.68273778  0.54516430    -0.60800
O852        O  0.53916279  0.67310859  0.93243272    -0.69200
O853        O  0.96758530  0.65638046  0.96573235    -0.68800
O854        O  0.96612418  0.65514331  0.57795748    -0.60000
O855        O  0.95904662  0.72949871  0.52368362    -0.72500
O856        O  0.96408759  0.58558847  0.02332901    -0.71300
Cu857      Cu  0.53861028  0.68421418  0.48926082     1.04600
Cu858      Cu  0.96508170  0.66026745  0.02158212     1.04300
C859        C  0.00580769  0.56381296  0.52110188     0.95000
C860        C  0.98766141  0.75778079  0.52222377     0.94100
C861        C  0.99675327  0.66173891  0.59532996     0.86300
C862        C  0.99852986  0.65459646  0.94834012     0.92500
O863        O  0.93671242  0.66249970  0.71637010    -0.71200
O864        O  0.93749828  0.65519078  0.82819241    -0.72200
O865        O  0.94082243  0.73306057  0.77637946    -0.60800
O866        O  0.93256706  0.58483601  0.76878435    -0.69200
O867        O  0.50999885  0.59561529  0.73819715    -0.68800
O868        O  0.50614035  0.74485864  0.73888477    -0.60000
O869        O  0.50859918  0.67084952  0.79447612    -0.72500
O870        O  0.50769619  0.66994620  0.68274415    -0.71300
Cu871      Cu  0.93480186  0.65908409  0.77241934     1.04600
Cu872      Cu  0.51026660  0.67039263  0.73852272     1.04300
C873        C  0.96724704  0.65994395  0.69829707     0.95000
C874        C  0.96842592  0.65300782  0.84543714     0.94100
C875        C  0.97262118  0.75428627  0.77563346     0.86300
C876        C  0.96182616  0.55853286  0.76801312     0.92500
O877        O  0.72021292  0.66705075  0.94746018    -0.71200
O878        O  0.71940129  0.67219348  0.55884870    -0.72200
O879        O  0.72586416  0.74612445  0.50371265    -0.60800
O880        O  0.71592349  0.59792540  0.50225968    -0.69200
O881        O  0.77771000  0.58808246  0.00204220    -0.68800
O882        O  0.78727992  0.73913695  0.50279066    -0.60000
O883        O  0.78083788  0.66665324  0.55964316    -0.72500
O884        O  0.78175246  0.66411175  0.94769507    -0.71300
Cu885      Cu  0.71875548  0.67213423  0.50292198     1.04600
Cu886      Cu  0.78368342  0.66266542  0.00371566     1.04300
C887        C  0.75110279  0.66563005  0.92989990     0.95000
C888        C  0.74985431  0.66945876  0.57688532     0.94100
C889        C  0.75547717  0.76313662  0.00507077     0.86300
C890        C  0.74493539  0.57112189  0.50254281     0.92500
O891        O  0.68904213  0.74093390  0.75665178    -0.71200
O892        O  0.68989813  0.59159828  0.75139742    -0.72200
O893        O  0.69023741  0.66418982  0.80957993    -0.60800
O894        O  0.68872349  0.66856178  0.69764344    -0.69200
O895        O  0.75031296  0.66816464  0.69692638    -0.68800
O896        O  0.75181230  0.66766363  0.80893561    -0.60000
O897        O  0.75149933  0.59340313  0.75194511    -0.72500
O898        O  0.75062047  0.74241211  0.75354147    -0.71300
Cu899      Cu  0.68730709  0.66626034  0.75376750     1.04600
Cu900      Cu  0.75318345  0.66794430  0.75277077     1.04300
C901        C  0.71969736  0.76511669  0.75584523     0.95000
C902        C  0.72090625  0.56895589  0.75149767     0.94100
C903        C  0.72117626  0.66562457  0.82691763     0.86300
C904        C  0.71933659  0.66883010  0.67962203     0.92500
O905        O  0.52707578  0.34806758  0.54732305    -0.71200
O906        O  0.55883105  0.33638636  0.93904723    -0.72200
O907        O  0.55441155  0.41324513  0.99386940    -0.60800
O908        O  0.53758715  0.27672441  0.48954519    -0.69200
O909        O  0.98291864  0.24632766  0.51496642    -0.68800
O910        O  0.98723770  0.39950378  0.01806208    -0.60000
O911        O  0.98385625  0.32630966  0.96022908    -0.72500
O912        O  0.97270785  0.31877032  0.57187120    -0.71300
Cu913      Cu  0.55254927  0.33892798  0.99500823     1.04600
Cu914      Cu  0.97175579  0.31885826  0.51565842     1.04300
C915        C  0.49521406  0.34327233  0.56263759     0.95000
C916        C  0.53083988  0.33872312  0.91730199     0.94100
C917        C  0.49272701  0.44241357  0.49011449     0.86300
C918        C  0.51564800  0.24310736  0.99044341     0.92500
O919        O  0.54848275  0.33998168  0.68565397    -0.71200
O920        O  0.54225483  0.33710383  0.79697106    -0.72200
O921        O  0.54677959  0.26376175  0.73878884    -0.60800
O922        O  0.54371665  0.41298127  0.74278830    -0.69200
O923        O  0.95100609  0.39796079  0.76639214    -0.68800
O924        O  0.94381473  0.24847662  0.77024712    -0.60000
O925        O  0.94950698  0.32643071  0.82386951    -0.72500
O926        O  0.94487745  0.32001780  0.71200149    -0.71300
Cu927      Cu  0.54745235  0.33849235  0.74126437     1.04600
Cu928      Cu  0.94508600  0.32335995  0.76815999     1.04300
C929        C  0.51878855  0.33821887  0.66635091     0.95000
C930        C  0.51038976  0.33675086  0.81264234     0.94100
C931        C  0.51649685  0.23874361  0.73746655     0.86300
C932        C  0.51256232  0.43499774  0.74044361     0.92500
O933        O  0.79317193  0.33168957  0.55076312    -0.71200
O934        O  0.77836427  0.32679655  0.94097470    -0.72200
O935        O  0.79197274  0.39855466  0.99789571    -0.60800
O936        O  0.77829401  0.25613559  0.49709411    -0.69200
O937        O  0.71806372  0.26570864  0.50808300    -0.68800
O938        O  0.73115614  0.40937447  0.00283081    -0.60000
O939        O  0.71745817  0.33590613  0.94723118    -0.72500
O940        O  0.73273292  0.34296105  0.55925488    -0.71300
Cu941      Cu  0.78548402  0.32418643  0.99603080     1.04600
Cu942      Cu  0.72252531  0.33968245  0.50485020     1.04300
C943        C  0.76540158  0.33794896  0.57234666     0.95000
C944        C  0.74621265  0.33179104  0.92664598     0.94100
C945        C  0.76391375  0.43166518  0.49792607     0.86300
C946        C  0.74168767  0.23344493  0.99888622     0.92500
O947        O  0.79061532  0.26384143  0.74137833    -0.71200
O948        O  0.78517446  0.41229771  0.74931185    -0.72200
O949        O  0.79455326  0.33463358  0.80105437    -0.60800
O950        O  0.78095479  0.34144646  0.69071859    -0.69200
O951        O  0.71990103  0.33444153  0.69806824    -0.68800
O952        O  0.73333420  0.33205878  0.80817012    -0.60000
O953        O  0.72385567  0.40781060  0.75491079    -0.72500
O954        O  0.72985190  0.25828899  0.75120175    -0.71300
Cu955      Cu  0.78996264  0.33824175  0.74544882     1.04600
Cu956      Cu  0.72458920  0.33293219  0.75340320     1.04300
C957        C  0.76117208  0.23765555  0.74507119     0.95000
C958        C  0.75376345  0.43353886  0.75246714     0.94100
C959        C  0.76596285  0.33272962  0.82204010     0.86300
C960        C  0.74826040  0.33870166  0.67704925     0.92500
C961        C  0.77088477  0.33136038  0.86263222    -0.14700
C962        C  0.74177484  0.33284685  0.88602053    -0.29900
H963        H  0.79899388  0.32958346  0.87345593     0.14300
H964        H  0.71372782  0.33533254  0.87513147     0.14900
C965        C  0.77132047  0.33885844  0.61272779    -0.14700
C966        C  0.74274509  0.34013558  0.63667706    -0.29900
H967        H  0.79966247  0.33697731  0.62291356     0.14300
H968        H  0.71437341  0.34088698  0.62644080     0.14900
C969        C  0.50694794  0.33749959  0.85340373    -0.14700
C970        C  0.53622962  0.33746001  0.87660792    -0.29900
H971        H  0.95545605  0.32767848  0.89590111     0.14300
H972        H  0.56433469  0.33637877  0.86565328     0.14900
C973        C  0.52182157  0.34021312  0.62558948    -0.14700
C974        C  0.49189961  0.34089312  0.60338565    -0.29900
H975        H  0.54951306  0.34171722  0.61360618     0.14300
H976        H  0.03079343  0.32699589  0.64428645     0.14900
C977        C  0.72104787  0.51409357  0.75144604    -0.14700
C978        C  0.75279233  0.48829811  0.75287673    -0.29900
H979        H  0.69452188  0.49460223  0.75037382     0.14300
H980        H  0.77926948  0.50794245  0.75356886     0.14900
C981        C  0.76916149  0.48590517  0.49797395    -0.14700
C982        C  0.74035116  0.51686064  0.50157813    -0.29900
H983        H  0.79826235  0.49591939  0.99965666     0.14300
H984        H  0.71227143  0.50204704  0.50361330     0.14900
C985        C  0.75192105  0.66580495  0.88872508    -0.14700
C986        C  0.72078084  0.66511218  0.86806265    -0.29900
H987        H  0.77887200  0.66637336  0.87512921     0.14300
H988        H  0.69386914  0.66417546  0.88172632     0.14900
C989        C  0.74990370  0.66923821  0.61798568    -0.14700
C990        C  0.71859771  0.66987449  0.63848619    -0.29900
H991        H  0.77670645  0.66791922  0.63175461     0.14300
H992        H  0.69172516  0.67086975  0.62482515     0.14900
C993        C  0.95769039  0.50394368  0.76630971    -0.14700
C994        C  0.51206098  0.48981931  0.74037240    -0.29900
H995        H  0.45393792  0.49597193  0.73598538     0.14300
H996        H  0.01493142  0.48900536  0.76609300     0.14900
C997        C  0.01230664  0.50993547  0.52059308    -0.14700
C998        C  0.48825879  0.49663012  0.48920184    -0.29900
H999        H  0.54559551  0.51328794  0.48710031     0.14300
H1000       H  0.04867245  0.49335232  0.01812649     0.14900
C1001       C  0.96811832  0.65233418  0.88657234    -0.14700
C1002       C  0.99932504  0.65265219  0.90717074    -0.29900
H1003       H  0.94123131  0.65282647  0.90029335     0.14300
H1004       H  0.53585005  0.67230541  0.85995939     0.14900
C1005       C  0.96643371  0.66113692  0.65720437    -0.14700
C1006       C  0.99756936  0.66211273  0.63644316    -0.29900
H1007       H  0.93945016  0.66104029  0.64372347     0.14300
H1008       H  0.53365281  0.67796313  0.61735807     0.14900
C1009       C  0.74302412  0.15260542  0.76213961    -0.14700
C1010       C  0.76365748  0.18319882  0.74130773    -0.29900
H1011       H  0.72506706  0.16793693  0.78361944     0.14300
H1012       H  0.78413669  0.16792810  0.72223304     0.14900
C1013       C  0.74455387  0.84792053  0.74119231    -0.14700
C1014       C  0.71922659  0.81969776  0.75856273    -0.29900
H1015       H  0.76469196  0.83082151  0.72263059     0.14300
H1016       H  0.69695465  0.83715481  0.77423910     0.14900
C1017       C  0.75164938  0.14860569  0.97591275    -0.14700
C1018       C  0.73542826  0.17959545  0.00024051    -0.29900
H1019       H  0.78580066  0.16435051  0.47293615     0.14300
H1020       H  0.71623193  0.16525837  0.02087332     0.14900
C1021       C  0.73353564  0.84529095  0.98744988    -0.14700
C1022       C  0.75810490  0.81771882  0.00579811    -0.29900
H1023       H  0.71225356  0.82730194  0.97047365     0.14300
H1024       H  0.78530135  0.83441765  0.48404876     0.14900
C1025       C  0.49403627  0.15450976  0.75216459    -0.14700
C1026       C  0.51807792  0.18418229  0.73434641    -0.29900
H1027       H  0.01684775  0.15780795  0.73338705     0.14300
H1028       H  0.54030901  0.16793551  0.71789912     0.14900
C1029       C  0.99566010  0.83517159  0.75445012    -0.14700
C1030       C  0.97457904  0.80884949  0.77790387    -0.29900
H1031       H  0.51664336  0.83457644  0.70661891     0.14300
H1032       H  0.95576871  0.82789351  0.79681496     0.14900
C1033       C  0.85783458  0.99480400  0.77097151    -0.14700
C1034       C  0.88189794  0.99080381  0.74246939    -0.29900
H1035       H  0.86781564  0.99526774  0.79946358     0.14300
H1036       H  0.87160086  0.98983674  0.71408414     0.14900
C1037       C  0.63329907  0.00245977  0.73039888    -0.14700
C1038       C  0.60796024  0.00034864  0.75773621    -0.29900
H1039       H  0.62447457  0.00517549  0.70163169     0.14300
H1040       H  0.61687789  0.99747333  0.78646551     0.14900
C1041       C  0.51381846  0.18844796  0.99178303    -0.14700
C1042       C  0.49102419  0.16154495  0.96976067    -0.29900
H1043       H  0.53585432  0.18104240  0.46625879     0.14300
H1044       H  0.97776340  0.16142251  0.96838962     0.14900
C1045       C  0.00468831  0.84177739  0.50290706    -0.14700
C1046       C  0.98323011  0.81191134  0.52352546    -0.29900
H1047       H  0.96940022  0.81934231  0.97545950     0.14300
H1048       H  0.47222861  0.84339848  0.51651828     0.14900
C1049       C  0.85538741  0.98954742  0.97506640    -0.14700
C1050       C  0.87812496  0.99322649  0.00463844    -0.29900
H1051       H  0.86699367  0.98532958  0.94732575     0.14300
H1052       H  0.87978813  0.99338784  0.47274367     0.14900
C1053       C  0.62775661  0.00624529  0.99048659    -0.14700
C1054       C  0.60526823  0.00807418  0.96075279    -0.29900
H1055       H  0.61595679  0.00646926  0.01828894     0.14300
H1056       H  0.62395293  0.01694796  0.53944718     0.14900
loop_ 
_geom_bond_atom_site_label_1 
_geom_bond_atom_site_label_2 
_geom_bond_distance 
_geom_bond_site_symmetry_2 
_ccdc_geom_bond_type 
O1           Cu9   2.017   1_566  S
O1           C11   1.278       .  A
O2           Cu9   2.020       .  S
O2          C804   1.279   1_554  A
O3           Cu9   2.031       .  S
O3           C13   1.281   1_554  A
O4         Cu537   2.004   1_455  S
O4           C14   1.278   1_554  A
O5          Cu10   1.985       .  S
O5          C278   1.275       .  A
O6         Cu538   2.028       .  S
O6          C277   1.279       .  A
O7          Cu10   2.014   1_545  S
O7           C12   1.279       .  A
O8          Cu10   2.015       .  S
O8          C803   1.278       .  A
Cu9         O532   2.009   1_554  S
Cu9        Cu802   2.375   1_554  S
Cu10        O534   2.001   1_455  S
Cu10       Cu801   2.376   1_455  S
C11         O800   1.277       .  A
C11         C253   1.473       .  S
C12         O794   1.275   1_455  A
C12         C250   1.467   1_455  S
C13         O270   1.275       .  A
C13         C522   1.477       .  S
C14         O269   1.278       .  A
C14         C526   1.480       .  S
O15        Cu551   2.018       .  S
O15          C25   1.279       .  A
O16         Cu23   2.016       .  S
O16          C26   1.279       .  A
O17         Cu23   2.019       .  S
O17         C555   1.279       .  A
O18        Cu551   2.015       .  S
O18          C28   1.277       .  A
O19         Cu24   2.014   1_655  S
O19          C28   1.278   1_655  A
O20         Cu24   2.013   1_545  S
O20          C27   1.277       .  A
O21        Cu552   2.023       .  S
O21          C26   1.279       .  A
O22         Cu24   2.019       .  S
O22          C25   1.278       .  A
Cu23        O543   2.029       .  S
Cu23        O546   2.018   1_545  S
Cu23       Cu552   2.374       .  S
Cu24        O549   2.019   1_455  S
Cu24       Cu551   2.371       .  S
C25         C246   1.482       .  S
C26         C242   1.483       .  S
C27         O545   1.279       .  A
C27         C233   1.473       .  S
C28         C765   1.473   1_455  S
O29         Cu37   2.018       .  S
O29          C39   1.279       .  A
O30         Cu37   2.017       .  S
O30          C40   1.279       .  A
O31         Cu37   2.011       .  S
O31          C41   1.278       .  A
O32         Cu37   2.010   1_565  S
O32          C42   1.277       .  A
O33         Cu38   2.024       .  S
O33         C306   1.280       .  A
O34         Cu38   2.026   1_545  S
O34         C305   1.279       .  A
O35         Cu38   2.005       .  S
O35         C304   1.276       .  A
O36         Cu38   2.007       .  S
O36         C303   1.276       .  A
Cu37       Cu302   2.374       .  S
Cu38       Cu301   2.373   1_554  S
C39         O300   1.276       .  A
C39         C257   1.472       .  S
C40         O299   1.277       .  A
C40         C261   1.475       .  S
C41         O298   1.277       .  A
C41         C225   1.472       .  S
C42         O297   1.279       .  A
C42         C229   1.473       .  S
O43         Cu51   2.004   1_545  S
O43          C53   1.275       .  A
O44         Cu51   2.005       .  S
O44          C54   1.277       .  A
O45         Cu51   2.026   1_545  S
O45          C55   1.280       .  A
O46         Cu51   2.023       .  S
O46          C56   1.280       .  A
O47         Cu52   2.014       .  S
O47          C56   1.277   1_545  A
O48         Cu52   2.012       .  S
O48          C55   1.277       .  A
O49         Cu52   2.023   1_565  S
O49          C54   1.279       .  A
O50         Cu52   2.023       .  S
O50          C53   1.280       .  A
Cu51        Cu52   2.372   1_565  S
C53         C217   1.472       .  S
C54         C221   1.475       .  S
C55         C241   1.482       .  S
C56         C245   1.482       .  S
O57         Cu65   2.010       .  S
O57         C595   1.278   1_455  A
O58         Cu65   2.012       .  S
O58         C596   1.277       .  A
O59         Cu65   2.013       .  S
O59         C597   1.278   1_455  A
O60        Cu329   2.009       .  S
O60         C598   1.277   1_455  A
O61         Cu66   2.027       .  S
O61          C70   1.281       .  A
O62        Cu330   2.023   1_554  S
O62          C69   1.281       .  A
O63        Cu330   2.009       .  S
O63          C68   1.278       .  A
O64         Cu66   2.000       .  S
O64         C331   1.277       .  A
Cu65        O324   2.022   1_554  S
Cu65       Cu858   2.373   1_455  S
Cu66        O326   2.013       .  S
Cu66        O327   2.001       .  S
Cu66       Cu857   2.375       .  S
C67         O585   1.280       .  A
C67         O328   1.276       .  A
C67         C205   1.477       .  S
C68         O586   1.278       .  A
C68         C254   1.476       .  S
C69         O587   1.276       .  A
C69         C214   1.480       .  S
C70         O588   1.277       .  A
C70         C210   1.481       .  S
O71         Cu79   2.006       .  S
O71          C81   1.276       .  A
O72         Cu79   2.017       .  S
O72          C82   1.278       .  A
O73         Cu79   2.013       .  S
O73          C83   1.277       .  A
O74         Cu79   2.013       .  S
O74          C84   1.278       .  A
O75         Cu80   2.012       .  S
O75         C612   1.279       .  A
O76         Cu80   2.014   1_455  S
O76         C611   1.278   1_455  A
O77         Cu80   2.018       .  S
O77         C610   1.280       .  A
O78         Cu80   2.013       .  S
O78         C609   1.279       .  A
Cu79       Cu608   2.374       .  S
Cu80       Cu607   2.373       .  S
C81         O606   1.281       .  A
C81         C213   1.480       .  S
C82         O605   1.280       .  A
C82         C209   1.481       .  S
C83         O604   1.278       .  A
C83         C238   1.472       .  S
C84         O603   1.279       .  A
C84         C201   1.479       .  S
O85        Cu357   2.000       .  S
O85          C95   1.278       .  A
O86         Cu93   2.008   1_554  S
O86          C96   1.277       .  A
O87         Cu93   2.015   1_554  S
O87         C361   1.279       .  A
O88         Cu93   2.015       .  S
O88          C98   1.279       .  A
O89         Cu94   2.003       .  S
O89         C362   1.276       .  A
O90        Cu358   2.012       .  S
O90         C361   1.277       .  A
O91        Cu358   1.997       .  S
O91          C96   1.277       .  A
O92         Cu94   2.012       .  S
O92          C95   1.277       .  A
Cu93        O349   2.004       .  S
Cu93       Cu358   2.375   1_556  S
Cu94        O354   2.005       .  S
Cu94        O355   1.999       .  S
Cu94       Cu357   2.375       .  S
C95         C193   1.475       .  S
C96         C197   1.470       .  S
C97         O351   1.279       .  A
C97         O354   1.276       .  A
C97         C230   1.471       .  S
C98         O353   1.278   1_556  A
C98         C190   1.480       .  S
O99        Cu107   2.017       .  S
O99         C109   1.278       .  A
O100       Cu107   2.013       .  S
O100        C110   1.279       .  A
O101       Cu107   2.005       .  S
O101        C111   1.277       .  A
O102       Cu107   1.993       .  S
O102        C112   1.276       .  A
O103       Cu108   2.013       .  S
O103        C112   1.278       .  A
O104       Cu108   2.009       .  S
O104        C111   1.278       .  A
O105       Cu108   2.011       .  S
O105        C110   1.277       .  A
O106       Cu108   2.010       .  S
O106        C109   1.277       .  A
Cu107      Cu108   2.375       .  S
C109        C222   1.472       .  S
C110        C185   1.477       .  S
C111        C194   1.473       .  S
C112        C198   1.471       .  S
O113       Cu385   2.016       .  S
O113        C123   1.278       .  A
O114       Cu121   2.004       .  S
O114        C124   1.276       .  A
O115       Cu121   2.014       .  S
O115        C389   1.280   1_455  A
O116       Cu385   2.008       .  S
O116        C390   1.276       .  A
O117       Cu122   2.024       .  S
O117        C918   1.280       .  A
O118       Cu386   2.011       .  S
O118        C917   1.278       .  A
O119       Cu386   2.014       .  S
O119        C652   1.278       .  A
O120       Cu122   1.993   1_554  S
O120        C651   1.274       .  A
Cu121       O377   2.011       .  S
Cu121       O380   2.014       .  S
Cu121      Cu914   2.374   1_455  S
Cu122       O382   2.021       .  S
Cu122       O383   1.987       .  S
Cu122      Cu913   2.374       .  S
C123        O648   1.279   1_455  A
C123        C182   1.480       .  S
C124        O647   1.281   1_455  A
C124        C178   1.479       .  S
C125        O379   1.277       .  A
C125        O910   1.279   1_455  A
C125        C206   1.477       .  S
C126        O380   1.277       .  A
C126        O909   1.277   1_455  A
C126        C249   1.470       .  S
O127       Cu135   2.025       .  S
O127        C137   1.280   1_455  A
O128       Cu135   2.018       .  S
O128        C138   1.280   1_455  A
O129       Cu135   2.011       .  S
O129        C139   1.278   1_455  A
O130       Cu135   2.011       .  S
O130        C140   1.277   1_455  A
O131       Cu136   2.007       .  S
O131        C668   1.278       .  A
O132       Cu136   2.006       .  S
O132        C667   1.276       .  A
O133       Cu136   2.023       .  S
O133        C666   1.279       .  A
O134       Cu136   2.010       .  S
O134        C665   1.280       .  A
Cu135      Cu664   2.373   1_455  S
Cu136      Cu663   2.374       .  S
C137        O662   1.276       .  A
C137        C181   1.478       .  S
C138        O661   1.277       .  A
C138        C177   1.481       .  S
C139        O660   1.278       .  A
C139        C234   1.476       .  S
C140        O659   1.279       .  A
C140        C202   1.478       .  S
O141       Cu413   1.999   1_554  S
O141        C151   1.275       .  A
O142       Cu149   2.007       .  S
O142        C152   1.278       .  A
O143       Cu149   2.016       .  S
O143        C417   1.280       .  A
O144       Cu413   2.018       .  S
O144        C418   1.278       .  A
O145       Cu150   2.018       .  S
O145        C418   1.278       .  A
O146       Cu414   2.007       .  S
O146        C417   1.276       .  A
O147       Cu414   2.002       .  S
O147        C152   1.276       .  A
O148       Cu150   2.004   1_554  S
O148        C151   1.278       .  A
Cu149       O405   2.013       .  S
Cu149       O408   2.016       .  S
Cu149      Cu414   2.375       .  S
Cu150       O410   2.013       .  S
Cu150       O411   2.017       .  S
Cu150      Cu413   2.374       .  S
C151        C173   1.469       .  S
C152        C170   1.470       .  S
C153        O407   1.279       .  A
C153        O410   1.278       .  A
C153        C189   1.479       .  S
C154        O408   1.278       .  A
C154        O409   1.278       .  A
C154        C226   1.473       .  S
O155       Cu163   2.010       .  S
O155        C165   1.277       .  A
O156       Cu163   2.011       .  S
O156        C166   1.279       .  A
O157       Cu163   2.011       .  S
O157        C167   1.277       .  A
O158       Cu163   2.002       .  S
O158        C168   1.278       .  A
O159       Cu164   2.001       .  S
O159        C168   1.276       .  A
O160       Cu164   1.997       .  S
O160        C167   1.277       .  A
O161       Cu164   2.013       .  S
O161        C166   1.278       .  A
O162       Cu164   2.017       .  S
O162        C165   1.279       .  A
Cu163      Cu164   2.375       .  S
C165        C218   1.475       .  S
C166        C186   1.477       .  S
C167        C169   1.473       .  S
C168        C174   1.470       .  S
C169        C170   1.343       .  D
C169        H171   1.087       .  S
C170        H172   1.087       .  S
C173        C174   1.341       .  D
C173        H175   1.087       .  S
C174        H176   1.087       .  S
C177        C178   1.344   1_655  D
C177        H707   1.087       .  S
C178        H180   1.087       .  S
H179        C705   1.086       .  S
C181        C182   1.345   1_655  D
C181        H183   1.087       .  S
C182        H712   1.087       .  S
H184        C710   1.087       .  S
C185        C186   1.345       .  D
C185        H187   1.087       .  S
C186        H188   1.087       .  S
C189        C190   1.346       .  D
C189        H455   1.087       .  S
C190        H192   1.087       .  S
H191        C453   1.087       .  S
C193        C194   1.344       .  D
C193        H195   1.087       .  S
C194        H196   1.087       .  S
C197        C198   1.344       .  D
C197        H199   1.087       .  S
C198        H200   1.087       .  S
C201        C730   1.347       .  D
C201        H731   1.087       .  S
C202        C729   1.346       .  D
C202        H732   1.087   1_655  S
H203        C729   1.086       .  S
H204        C730   1.086       .  S
C205        C734   1.343       .  D
C205        H735   1.087       .  S
C206        C733   1.345   1_455  D
C206       H1000   1.087       .  S
H207        C733   1.086       .  S
H208        C998   1.087       .  S
C209        C210   1.345       .  D
C209        H211   1.087       .  S
C210        H740   1.087       .  S
H212        C738   1.087   1_455  S
C213        C214   1.344       .  D
C213        H215   1.087       .  S
C214        H744   1.087       .  S
H216        C742   1.087   1_455  S
C217        C218   1.340       .  D
C217        H219   1.087       .  S
C218        H220   1.087       .  S
C221        C222   1.343       .  D
C221        H223   1.087       .  S
C222        H224   1.087       .  S
C225        C226   1.343       .  D
C225        H491   1.087       .  S
C226        H228   1.087       .  S
H227        C489   1.087       .  S
C229        C230   1.340       .  D
C229        H231   1.087       .  S
C230        H496   1.087       .  S
H232        C494   1.087       .  S
C233        C234   1.342   1_455  D
C233        H763   1.087       .  S
C234        H236   1.087       .  S
H235        C761   1.087       .  S
C237        C556   1.474       .  S
C237        C238   1.341       .  D
C237        H767   1.087       .  S
C238        H240   1.087       .  S
H239        C765   1.087   1_455  S
C241        C242   1.347       .  D
C241        H243   1.087       .  S
C242        H244   1.087       .  S
C245        C246   1.346       .  D
C245        H247   1.087       .  S
C246        H248   1.087       .  S
C249        C250   1.340   1_455  D
C249        H515   1.087       .  S
C250        H780   1.087       .  S
H251        C513   1.087       .  S
H252        C778   1.087       .  S
C253        C254   1.343       .  D
C253        H519   1.087       .  S
C254        H784   1.087   1_556  S
H255        C517   1.087       .  S
H256        C782   1.087       .  S
C257        C258   1.345       .  D
C257        H259   1.087       .  S
C258        C277   1.479       .  S
C258        H524   1.087       .  S
H260        C522   1.087       .  S
C261        C262   1.349   1_545  D
C261        H263   1.087       .  S
C262        C278   1.479       .  S
C262        H528   1.087       .  S
H264        C526   1.087       .  S
O265       Cu273   2.008   1_565  S
O265        C275   1.278       .  A
O266       Cu273   2.005       .  S
O266        C540   1.276       .  A
O267       Cu273   1.989       .  S
O267        C277   1.277       .  A
O268       Cu801   2.036   1_455  S
O268        C278   1.281       .  A
O269       Cu274   2.022   1_455  S
O270       Cu802   1.998       .  S
O271       Cu274   2.017   1_545  S
O271        C276   1.278       .  A
O272       Cu274   2.015       .  S
O272        C539   1.278       .  A
Cu273       O796   2.005       .  S
Cu273      Cu538   2.376       .  S
Cu274       O798   2.001       .  S
Cu274      Cu537   2.374   1_556  S
C275        O536   1.276       .  A
C275        C517   1.470       .  S
C276        O530   1.279   1_556  A
C276        C514   1.477       .  S
O279       Cu815   1.996   1_455  S
O279        C289   1.277       .  A
O280       Cu287   2.023       .  S
O280        C290   1.279       .  A
O281       Cu287   2.016       .  S
O281        C819   1.279       .  A
O282       Cu815   2.011       .  S
O282        C292   1.277       .  A
O283       Cu288   2.020       .  S
O283        C292   1.279       .  A
O284       Cu288   2.018   1_545  S
O284        C291   1.279       .  A
O285       Cu816   1.985       .  S
O285        C290   1.276   1_565  A
O286       Cu288   2.021   1_455  S
O286        C289   1.279       .  A
Cu287       O807   2.006       .  S
Cu287       O810   2.013   1_545  S
Cu287      Cu816   2.376   1_545  S
Cu288       O813   2.006       .  S
Cu288      Cu815   2.376       .  S
C289        C510   1.475       .  S
C290        C506   1.474       .  S
C291        O809   1.276       .  A
C291        C497   1.470       .  S
C292       C1029   1.476       .  S
O293       Cu301   2.021       .  S
O293        C303   1.281   1_556  A
O294       Cu301   2.022       .  S
O294        C304   1.280   1_556  A
O295       Cu301   2.007   1_545  S
O295        C305   1.277   1_556  A
O296       Cu301   2.004       .  S
O296        C306   1.275   1_556  A
O297       Cu302   2.012   1_565  S
O298       Cu302   2.015       .  S
O299       Cu302   2.005       .  S
O300       Cu302   2.000       .  S
C303        C521   1.480   1_565  S
C304        C525   1.476       .  S
C305        C489   1.478       .  S
C306        C493   1.471   1_554  S
O307       Cu315   2.011   1_545  S
O307        C317   1.277       .  A
O308       Cu315   2.009       .  S
O308        C318   1.278       .  A
O309       Cu315   2.001       .  S
O309        C319   1.276       .  A
O310       Cu315   2.005       .  S
O310        C320   1.278       .  A
O311       Cu316   2.010       .  S
O311        C320   1.277       .  A
O312       Cu316   2.008       .  S
O312        C319   1.278       .  A
O313       Cu316   2.015       .  S
O313        C318   1.277       .  A
O314       Cu316   2.015   1_545  S
O314        C317   1.278       .  A
Cu315      Cu316   2.374       .  S
C317        C481   1.472       .  S
C318        C485   1.472       .  S
C319        C505   1.470       .  S
C320        C509   1.474       .  S
O321       Cu329   1.997       .  S
O321        C859   1.275       .  A
O322       Cu329   2.001       .  S
O322        C860   1.277   1_455  A
O323       Cu329   2.020       .  S
O323        C861   1.279   1_455  A
O324        C862   1.279   1_455  A
O325       Cu330   2.010       .  S
O325        C334   1.279       .  A
O326        C333   1.279       .  A
O327        C332   1.275       .  A
O328       Cu330   2.004       .  S
Cu329      Cu594   2.374   1_455  S
Cu330      Cu593   2.374       .  S
C331        O849   1.277       .  A
C331        C469   1.473       .  S
C332        O850   1.279       .  A
C332        C518   1.467       .  S
C333        O851   1.278       .  A
C333        C478   1.478       .  S
C334        O852   1.277       .  A
C334        C474   1.477       .  S
O335       Cu343   2.017       .  S
O335        C345   1.278       .  A
O336       Cu343   2.008       .  S
O336        C346   1.277       .  A
O337       Cu343   2.011       .  S
O337        C347   1.277       .  A
O338       Cu343   2.011       .  S
O338        C348   1.277       .  A
O339       Cu344   2.023   1_655  S
O339        C876   1.281       .  A
O340       Cu344   2.022       .  S
O340        C875   1.279   1_455  A
O341       Cu344   2.021   1_655  S
O341        C874   1.279       .  A
O342       Cu344   2.011   1_655  S
O342        C873   1.278       .  A
Cu343      Cu872   2.374       .  S
Cu344      Cu871   2.373   1_455  S
C345        O870   1.278       .  A
C345        C477   1.478       .  S
C346        O869   1.279       .  A
C346        C473   1.476       .  S
C347        O868   1.279       .  A
C347        C502   1.473       .  S
C348        O867   1.279       .  A
C348        C465   1.478       .  S
O349        C359   1.278       .  A
O350       Cu357   2.007       .  S
O350        C360   1.277       .  A
O351       Cu357   2.019       .  S
O352       Cu357   2.016       .  S
O352        C362   1.280       .  A
O353       Cu358   2.016       .  S
O355        C360   1.278       .  A
O356       Cu358   2.004   1_556  S
O356        C359   1.276       .  A
C359        C457   1.471       .  S
C360        C461   1.471       .  S
C361        C494   1.475       .  S
C362        C454   1.475       .  S
O363       Cu371   2.017       .  S
O363        C373   1.279       .  A
O364       Cu371   2.020       .  S
O364        C374   1.280       .  A
O365       Cu371   2.011       .  S
O365        C375   1.277       .  A
O366       Cu371   2.001       .  S
O366        C376   1.278       .  A
O367       Cu372   2.004       .  S
O367        C376   1.276       .  A
O368       Cu372   1.997       .  S
O368        C375   1.277       .  A
O369       Cu372   2.008       .  S
O369        C374   1.277       .  A
O370       Cu372   2.006       .  S
O370        C373   1.276       .  A
Cu371      Cu372   2.375       .  S
C373        C486   1.471       .  S
C374        C449   1.478       .  S
C375        C458   1.473       .  S
C376        C462   1.470       .  S
O377        C387   1.277       .  A
O378       Cu385   2.023   1_556  S
O378        C388   1.279       .  A
O379       Cu385   2.007       .  S
O381       Cu386   2.010       .  S
O381        C654   1.278       .  A
O382        C653   1.280       .  A
O383        C916   1.276       .  A
O384       Cu386   2.006       .  S
O384        C915   1.276       .  A
Cu385      Cu650   2.374   1_455  S
Cu386      Cu649   2.377       .  S
C387        O912   1.280   1_455  A
C387        C446   1.479       .  S
C388        O911   1.278   1_455  A
C388        C442   1.479       .  S
C389        O646   1.275       .  A
C389        C470   1.475       .  S
C390        O645   1.279   1_455  A
C390        C513   1.473       .  S
O391       Cu399   2.012       .  S
O391        C401   1.279   1_455  A
O392       Cu399   2.017       .  S
O392        C402   1.279   1_455  A
O393       Cu399   2.004       .  S
O393        C403   1.277   1_455  A
O394       Cu399   2.002       .  S
O394        C404   1.276   1_455  A
O395       Cu400   2.013       .  S
O395        C932   1.279       .  A
O396       Cu400   2.018       .  S
O396        C931   1.279       .  A
O397       Cu400   2.001       .  S
O397        C930   1.277       .  A
O398       Cu400   2.009       .  S
O398        C929   1.279       .  A
Cu399      Cu928   2.373   1_455  S
Cu400      Cu927   2.375       .  S
C401        O926   1.278       .  A
C401        C445   1.482       .  S
C402        O925   1.277       .  A
C402        C441   1.478       .  S
C403        O924   1.278       .  A
C403        C498   1.475       .  S
C404        O923   1.280       .  A
C404        C466   1.478       .  S
O405        C415   1.278       .  A
O406       Cu413   1.996       .  S
O406        C416   1.277       .  A
O407       Cu413   2.019       .  S
O409       Cu414   2.007       .  S
O411        C416   1.278       .  A
O412       Cu414   1.996       .  S
O412        C415   1.277       .  A
C415        C437   1.473       .  S
C416        C434   1.475       .  S
C417        C453   1.476       .  S
C418        C490   1.475       .  S
O419       Cu427   2.017       .  S
O419        C429   1.278       .  A
O420       Cu427   2.017       .  S
O420        C430   1.280       .  A
O421       Cu427   2.005       .  S
O421        C431   1.277       .  A
O422       Cu427   2.001       .  S
O422        C432   1.277       .  A
O423       Cu428   2.011       .  S
O423        C432   1.278       .  A
O424       Cu428   2.007       .  S
O424        C431   1.278       .  A
O425       Cu428   2.010       .  S
O425        C430   1.277       .  A
O426       Cu428   2.009       .  S
O426        C429   1.278       .  A
Cu427      Cu428   2.374       .  S
C429        C482   1.474       .  S
C430        C450   1.478       .  S
C431        C433   1.472       .  S
C432        C438   1.472       .  S
C433        C434   1.344       .  D
C433        H435   1.087       .  S
C434        H436   1.087       .  S
C437        C438   1.345       .  D
C437        H439   1.087       .  S
C438        H440   1.087       .  S
C441        C442   1.346   1_655  D
C441        H971   1.087       .  S
C442        H444   1.086       .  S
H443        C969   1.087       .  S
C445        C446   1.346   1_655  D
C445        H447   1.087       .  S
C446        H976   1.087       .  S
H448        C974   1.087       .  S
C449        C450   1.344       .  D
C449        H451   1.087       .  S
C450        H452   1.087       .  S
C453        C454   1.343       .  D
C454        H456   1.087       .  S
C457        C458   1.343       .  D
C457        H459   1.087       .  S
C458        H460   1.087       .  S
C461        C462   1.343       .  D
C461        H463   1.087       .  S
C462        H464   1.087       .  S
C465        C994   1.345       .  D
C465        H995   1.087       .  S
C466        C993   1.343       .  D
C466        H996   1.087   1_655  S
H467        C993   1.087       .  S
H468        C994   1.086       .  S
C469        C998   1.345       .  D
C469        H999   1.087       .  S
C470        C997   1.341   1_655  D
C470        H736   1.087       .  S
H471        C997   1.087       .  S
H472        C734   1.087       .  S
C473        C474   1.345       .  D
C473        H475   1.087       .  S
C474       H1004   1.087       .  S
H476       C1002   1.087   1_455  S
C477        C478   1.346       .  D
C477        H479   1.087       .  S
C478       H1008   1.087       .  S
H480       C1006   1.087   1_455  S
C481        C482   1.342       .  D
C481        H483   1.087       .  S
C482        H484   1.087       .  S
C485        C486   1.341       .  D
C485        H487   1.087       .  S
C486        H488   1.087       .  S
C489        C490   1.344   1_554  D
C490        H492   1.087       .  S
C493        C494   1.341   1_556  D
C493        H495   1.087       .  S
C497        C498   1.342       .  D
C497       H1027   1.087   1_655  S
C498        H500   1.087       .  S
H499       C1025   1.087       .  S
C501        C820   1.473       .  S
C501        C502   1.341       .  D
C501       H1031   1.087       .  S
C502        H504   1.087       .  S
H503       C1029   1.087   1_455  S
C505        C506   1.345   1_565  D
C505        H507   1.087       .  S
C506        H508   1.087       .  S
C509        C510   1.345       .  D
C509        H511   1.087       .  S
C510        H512   1.087       .  S
C513        C514   1.342   1_454  D
C514       H1044   1.087       .  S
H516       C1042   1.087       .  S
C517        C518   1.338       .  D
C518       H1048   1.087       .  S
H520       C1046   1.087       .  S
C521        C522   1.343   1_554  D
C521        H523   1.087       .  S
C525        C526   1.345   1_554  D
C525        H527   1.087       .  S
O529       Cu537   2.018       .  S
O529        C539   1.279   1_554  A
O530       Cu537   2.015   1_545  S
O531       Cu537   2.018       .  S
O531        C541   1.278       .  A
O532        C542   1.278       .  A
O533       Cu538   2.010       .  S
O533        C806   1.279       .  A
O534        C805   1.276       .  A
O535       Cu538   2.003       .  S
O535        C540   1.278       .  A
O536       Cu538   2.004   1_565  S
C539        C781   1.476       .  S
C540        C778   1.467       .  S
C541        O798   1.278   1_554  A
C541       C1050   1.476       .  S
C542        O797   1.277       .  A
C542       C1054   1.477       .  S
O543        C553   1.280       .  A
O544       Cu551   2.013   1_655  S
O544        C554   1.279       .  A
O545       Cu551   2.020   1_545  S
O546        C556   1.279       .  A
O547       Cu552   2.011   1_565  S
O547        C556   1.277       .  A
O548       Cu552   2.010       .  S
O548        C555   1.277       .  A
O549        C554   1.278       .  A
O550       Cu552   2.004       .  S
O550        C553   1.277       .  A
C553        C774   1.478       .  S
C554        C770   1.481       .  S
C555        C761   1.476       .  S
O557       Cu565   1.999       .  S
O557        C567   1.278       .  A
O558       Cu565   2.016   1_545  S
O558        C568   1.278       .  A
O559       Cu565   1.999   1_545  S
O559        C569   1.275       .  A
O560       Cu565   2.001       .  S
O560        C570   1.277       .  A
O561       Cu566   2.017       .  S
O561        C834   1.278   1_554  A
O562       Cu566   2.014   1_545  S
O562        C833   1.279   1_554  A
O563       Cu566   2.009   1_545  S
O563        C832   1.277   1_554  A
O564       Cu566   2.008       .  S
O564        C831   1.278   1_554  A
Cu565      Cu830   2.376   1_565  S
Cu566      Cu829   2.373   1_554  S
C567        O828   1.278   1_565  A
C567        C785   1.478       .  S
C568        O827   1.277       .  A
C568        C789   1.475       .  S
C569        O826   1.279       .  A
C569        C753   1.467       .  S
C570        O825   1.277       .  A
C570        C757   1.470       .  S
O571       Cu579   2.018   1_545  S
O571        C581   1.279       .  A
O572       Cu579   2.022       .  S
O572        C582   1.279       .  A
O573       Cu579   2.023       .  S
O573        C583   1.280       .  A
O574       Cu579   2.005       .  S
O574        C584   1.278       .  A
O575       Cu580   2.028       .  S
O575        C584   1.279       .  A
O576       Cu580   2.008       .  S
O576        C583   1.277       .  A
O577       Cu580   2.010       .  S
O577        C582   1.277       .  A
O578       Cu580   2.010   1_545  S
O578        C581   1.277       .  A
Cu579      Cu580   2.374       .  S
C581        C745   1.476       .  S
C582        C749   1.473       .  S
C583        C769   1.479       .  S
C584        C773   1.483       .  S
O585       Cu593   2.020       .  S
O586       Cu593   2.022       .  S
O587       Cu593   2.008   1_554  S
O588       Cu857   2.009       .  S
O589       Cu594   2.018       .  S
O589        C598   1.279       .  A
O590       Cu858   2.021       .  S
O590        C597   1.280       .  A
O591       Cu858   2.019       .  S
O591        C596   1.279   1_655  A
O592       Cu594   2.020       .  S
O592        C859   1.280   1_655  A
Cu593       O852   2.014       .  S
Cu594       O854   2.011       .  S
Cu594       O855   2.017       .  S
C595        O856   1.278       .  A
C595        C733   1.478       .  S
C596        C782   1.474       .  S
C597        C742   1.480       .  S
C598        C738   1.478       .  S
O599       Cu607   2.019       .  S
O599        C609   1.278       .  A
O600       Cu607   2.010       .  S
O600        C610   1.277       .  A
O601       Cu607   2.016       .  S
O601        C611   1.278       .  A
O602       Cu607   2.016       .  S
O602        C612   1.278       .  A
O603       Cu608   2.018       .  S
O604       Cu608   2.014       .  S
O605       Cu608   2.018       .  S
O606       Cu608   2.028       .  S
C609        C741   1.481       .  S
C610        C737   1.479       .  S
C611        C766   1.474       .  S
C612        C729   1.480       .  S
O613       Cu885   2.016       .  S
O613        C623   1.280       .  A
O614       Cu621   2.022       .  S
O614        C624   1.280       .  A
O615       Cu621   2.005       .  S
O615        C889   1.277       .  A
O616       Cu621   2.001       .  S
O616        C626   1.276       .  A
O617       Cu622   2.007       .  S
O617        C890   1.278       .  A
O618       Cu886   2.018       .  S
O618        C889   1.278       .  A
O619       Cu886   2.007       .  S
O619        C624   1.276       .  A
O620       Cu622   2.006       .  S
O620        C623   1.276       .  A
Cu621       O877   2.018   1_554  S
Cu621      Cu886   2.374       .  S
Cu622       O882   2.005       .  S
Cu622       O883   2.018       .  S
Cu622      Cu885   2.375       .  S
C623        C721   1.476       .  S
C624        C725   1.478       .  S
C625        O879   1.278       .  A
C625        O882   1.276       .  A
C625        C758   1.468       .  S
C626        O881   1.279       .  A
C626        C718   1.474       .  S
O627       Cu635   2.019       .  S
O627        C637   1.278       .  A
O628       Cu635   2.019       .  S
O628        C638   1.279       .  A
O629       Cu635   2.001       .  S
O629        C639   1.275       .  A
O630       Cu635   2.012       .  S
O630        C640   1.277       .  A
O631       Cu636   2.013       .  S
O631        C640   1.279       .  A
O632       Cu636   2.021       .  S
O632        C639   1.280       .  A
O633       Cu636   2.014       .  S
O633        C638   1.278       .  A
O634       Cu636   2.011       .  S
O634        C637   1.278       .  A
Cu635      Cu636   2.374       .  S
C637        C750   1.475       .  S
C638        C713   1.480       .  S
C639        C722   1.475       .  S
C640        C726   1.479       .  S
O641       Cu913   2.017   1_554  S
O641        C651   1.280       .  A
O642       Cu649   1.993       .  S
O642        C652   1.276       .  A
O643       Cu649   2.001       .  S
O643        C917   1.277       .  A
O644       Cu913   2.008       .  S
O644        C918   1.276       .  A
O645       Cu650   2.024       .  S
O646       Cu914   2.002       .  S
O647       Cu914   2.028       .  S
O648       Cu650   2.013       .  S
Cu649       O905   2.008       .  S
Cu649       O908   1.997       .  S
Cu650       O910   2.018       .  S
Cu650       O911   2.006   1_554  S
C651        C710   1.471       .  S
C652        C706   1.469       .  S
C653        O907   1.276       .  A
C653        C734   1.477       .  S
C654        O908   1.275       .  A
C654        C777   1.464       .  S
O655       Cu663   1.999       .  S
O655        C665   1.275       .  A
O656       Cu663   1.987       .  S
O656        C666   1.276       .  A
O657       Cu663   2.024       .  S
O657        C667   1.280       .  A
O658       Cu663   2.022       .  S
O658        C668   1.279       .  A
O659       Cu664   2.019       .  S
O660       Cu664   2.018       .  S
O661       Cu664   2.015       .  S
O662       Cu664   2.005       .  S
C665        C709   1.473       .  S
C666        C705   1.476       .  S
C667        C762   1.473       .  S
C668        C730   1.480       .  S
O669       Cu941   2.008   1_554  S
O669        C679   1.277       .  A
O670       Cu677   2.005       .  S
O670        C680   1.279       .  A
O671       Cu677   2.006       .  S
O671        C945   1.276       .  A
O672       Cu941   2.015       .  S
O672        C946   1.279       .  A
O673       Cu678   2.003       .  S
O673        C946   1.275   1_554  A
O674       Cu942   2.003       .  S
O674        C945   1.278       .  A
O675       Cu942   2.005       .  S
O675        C680   1.276       .  A
O676       Cu678   2.002       .  S
O676        C679   1.277       .  A
Cu677       O933   2.006       .  S
Cu677       O936   2.008       .  S
Cu677      Cu942   2.376       .  S
Cu678       O938   2.005       .  S
Cu678       O939   2.010   1_554  S
Cu678      Cu941   2.375   1_554  S
C679        C701   1.472       .  S
C680        C698   1.473       .  S
C681        O935   1.278   1_554  A
C681        O938   1.278       .  A
C681        C717   1.478       .  S
C682        O936   1.278       .  A
C682        O937   1.276       .  A
C682        C754   1.470       .  S
O683       Cu691   2.025       .  S
O683        C693   1.280       .  A
O684       Cu691   2.025       .  S
O684        C694   1.280       .  A
O685       Cu691   2.002       .  S
O685        C695   1.276       .  A
O686       Cu691   1.994       .  S
O686        C696   1.276       .  A
O687       Cu692   2.018       .  S
O687        C696   1.278       .  A
O688       Cu692   2.008       .  S
O688        C695   1.279       .  A
O689       Cu692   2.008       .  S
O689        C694   1.278       .  A
O690       Cu692   2.006       .  S
O690        C693   1.276       .  A
Cu691      Cu692   2.374       .  S
C693        C746   1.473       .  S
C694        C714   1.481       .  S
C695        C697   1.472       .  S
C696        C702   1.474       .  S
C697        C698   1.342       .  D
C697        H699   1.087       .  S
C698        H700   1.087       .  S
C701        C702   1.345       .  D
C701        H703   1.087       .  S
C702        H704   1.087       .  S
C705        C706   1.344       .  D
C706        H708   1.087       .  S
C709        C710   1.340       .  D
C709        H711   1.087       .  S
C713        C714   1.348       .  D
C713        H715   1.087       .  S
C714        H716   1.086       .  S
C717        C718   1.344       .  D
C717        H983   1.086   1_554  S
C718        H720   1.087       .  S
H719        C981   1.087       .  S
C721        C722   1.343       .  D
C721        H723   1.087       .  S
C722        H724   1.087       .  S
C725        C726   1.344       .  D
C725        H727   1.087       .  S
C726        H728   1.087       .  S
C737        C738   1.344       .  D
C737        H739   1.087       .  S
C741        C742   1.346       .  D
C741        H743   1.087       .  S
C745        C746   1.341       .  D
C745        H747   1.087       .  S
C746        H748   1.087       .  S
C749        C750   1.342       .  D
C749        H751   1.087       .  S
C750        H752   1.087       .  S
C753        C754   1.339       .  D
C753       H1019   1.087       .  S
C754        H756   1.087       .  S
H755       C1017   1.087       .  S
C757        C758   1.340       .  D
C757        H759   1.087       .  S
C758       H1024   1.087       .  S
H760       C1022   1.087       .  S
C761        C762   1.341       .  D
C762        H764   1.087       .  S
C765        C766   1.342       .  D
C766        H768   1.087       .  S
C769        C770   1.346       .  D
C769        H771   1.087       .  S
C770        H772   1.087       .  S
C773        C774   1.346   1_565  D
C773        H775   1.086       .  S
C774        H776   1.087       .  S
C777        C778   1.338       .  D
C777       H1043   1.087       .  S
H779       C1041   1.087   1_554  S
C781        C782   1.342   1_656  D
C781       H1047   1.087       .  S
H783       C1045   1.087       .  S
C785        C786   1.344       .  D
C785        H787   1.087       .  S
C786        C805   1.473       .  S
C786       H1052   1.087       .  S
H788       C1050   1.087       .  S
C789        C790   1.344       .  D
C789        H791   1.087       .  S
C790        C806   1.473       .  S
C790       H1056   1.087       .  S
H792       C1054   1.087       .  S
O793       Cu801   2.003       .  S
O793        C803   1.277   1_655  A
O794       Cu801   2.002   1_545  S
O795       Cu801   2.019       .  S
O795        C805   1.279       .  A
O796        C806   1.276       .  A
O797       Cu802   2.013       .  S
O799       Cu802   2.014       .  S
O799        C804   1.277       .  A
O800       Cu802   2.014   1_565  S
C803       C1045   1.470       .  S
C804       C1042   1.476       .  S
O807        C817   1.278       .  A
O808       Cu815   2.010       .  S
O808        C818   1.278       .  A
O809       Cu815   2.006   1_545  S
O810        C820   1.277       .  A
O811       Cu816   2.014       .  S
O811        C820   1.279       .  A
O812       Cu816   2.017   1_545  S
O812        C819   1.278       .  A
O813        C818   1.277       .  A
O814       Cu816   2.003       .  S
O814        C817   1.276   1_565  A
C817       C1038   1.471       .  S
C818       C1034   1.473       .  S
C819       C1025   1.476       .  S
O821       Cu829   2.011       .  S
O821        C831   1.278       .  A
O822       Cu829   2.013   1_545  S
O822        C832   1.279       .  A
O823       Cu829   2.005   1_545  S
O823        C833   1.276       .  A
O824       Cu829   2.006       .  S
O824        C834   1.276       .  A
O825       Cu830   2.013   1_565  S
O826       Cu830   2.013       .  S
O827       Cu830   1.999       .  S
O828       Cu830   2.020       .  S
C831       C1049   1.474       .  S
C832       C1053   1.476       .  S
C833       C1017   1.470       .  S
C834       C1021   1.470       .  S
O835       Cu843   2.013   1_545  S
O835        C845   1.277       .  A
O836       Cu843   2.011       .  S
O836        C846   1.278       .  A
O837       Cu843   2.024       .  S
O837        C847   1.279       .  A
O838       Cu843   2.001       .  S
O838        C848   1.278   1_565  A
O839       Cu844   2.008       .  S
O839        C848   1.277       .  A
O840       Cu844   1.992       .  S
O840        C847   1.277   1_545  A
O841       Cu844   2.015   1_565  S
O841        C846   1.277       .  A
O842       Cu844   2.020       .  S
O842        C845   1.279       .  A
Cu843      Cu844   2.375   1_565  S
C845       C1009   1.477       .  S
C846       C1013   1.473       .  S
C847       C1033   1.477       .  S
C848       C1037   1.473       .  S
O849       Cu857   2.011       .  S
O850       Cu857   2.014       .  S
O851       Cu857   2.014       .  S
O853       Cu858   2.013   1_556  S
O853        C862   1.279       .  A
O854        C861   1.278       .  A
O855        C860   1.278       .  A
O856       Cu858   2.015       .  S
C859        C997   1.473       .  S
C860       C1046   1.470       .  S
C861       C1006   1.480       .  S
C862       C1002   1.482       .  S
O863       Cu871   2.022       .  S
O863        C873   1.279       .  A
O864       Cu871   2.014       .  S
O864        C874   1.278       .  A
O865       Cu871   2.007       .  S
O865        C875   1.276       .  A
O866       Cu871   2.005       .  S
O866        C876   1.276       .  A
O867       Cu872   2.016       .  S
O868       Cu872   2.015       .  S
O869       Cu872   2.014       .  S
O870       Cu872   2.009       .  S
C873       C1005   1.480       .  S
C874       C1001   1.481       .  S
C875       C1030   1.473       .  S
C876        C993   1.478       .  S
O877        C887   1.280       .  A
O878       Cu885   2.013       .  S
O878        C888   1.278       .  A
O879       Cu885   2.009       .  S
O880       Cu885   2.002       .  S
O880        C890   1.276       .  A
O881       Cu886   2.020       .  S
O883        C888   1.279       .  A
O884       Cu886   2.018   1_556  S
O884        C887   1.278       .  A
C887        C985   1.482       .  S
C888        C989   1.479       .  S
C889       C1022   1.474       .  S
C890        C982   1.471       .  S
O891       Cu899   2.015       .  S
O891        C901   1.278       .  A
O892       Cu899   2.017       .  S
O892        C902   1.278       .  A
O893       Cu899   2.013       .  S
O893        C903   1.278       .  A
O894       Cu899   2.022       .  S
O894        C904   1.279       .  A
O895       Cu900   2.012       .  S
O895        C904   1.279       .  A
O896       Cu900   2.022       .  S
O896        C903   1.280       .  A
O897       Cu900   2.010       .  S
O897        C902   1.279       .  A
O898       Cu900   2.011       .  S
O898        C901   1.278       .  A
Cu899      Cu900   2.373       .  S
C901       C1014   1.474       .  S
C902        C977   1.479       .  S
C903        C986   1.481       .  S
C904        C990   1.481       .  S
O905        C915   1.279       .  A
O906       Cu913   2.026       .  S
O906        C916   1.279       .  A
O907       Cu913   2.005       .  S
O909       Cu914   2.000       .  S
O912       Cu914   2.023       .  S
C915        C974   1.473       .  S
C916        C970   1.477       .  S
C917        C998   1.473       .  S
C918       C1041   1.476       .  S
O919       Cu927   2.002       .  S
O919        C929   1.276       .  A
O920       Cu927   2.014       .  S
O920        C930   1.278       .  A
O921       Cu927   2.016       .  S
O921        C931   1.278       .  A
O922       Cu927   2.014       .  S
O922        C932   1.278       .  A
O923       Cu928   2.023       .  S
O924       Cu928   2.022       .  S
O925       Cu928   2.012       .  S
O926       Cu928   2.022       .  S
C929        C973   1.473       .  S
C930        C969   1.472       .  S
C931       C1026   1.475       .  S
C932        C994   1.478       .  S
O933        C943   1.277       .  A
O934       Cu941   2.000       .  S
O934        C944   1.277       .  A
O935       Cu941   2.017       .  S
O937       Cu942   2.005       .  S
O939        C944   1.277       .  A
O940       Cu942   1.993       .  S
O940        C943   1.277       .  A
C943        C965   1.469       .  S
C944        C962   1.472       .  S
C945        C981   1.473       .  S
C946       C1018   1.469   1_556  S
O947       Cu955   2.010       .  S
O947        C957   1.276       .  A
O948       Cu955   2.009       .  S
O948        C958   1.277       .  A
O949       Cu955   2.012       .  S
O949        C959   1.277       .  A
O950       Cu955   2.000       .  S
O950        C960   1.278       .  A
O951       Cu956   2.000       .  S
O951        C960   1.276       .  A
O952       Cu956   1.997       .  S
O952        C959   1.277       .  A
O953       Cu956   2.019       .  S
O953        C958   1.279       .  A
O954       Cu956   2.024       .  S
O954        C957   1.280       .  A
Cu955      Cu956   2.375       .  S
C957       C1010   1.476       .  S
C958        C978   1.477       .  S
C959        C961   1.473       .  S
C960        C966   1.468       .  S
C961        C962   1.344       .  D
C961        H963   1.087       .  S
C962        H964   1.087       .  S
C965        C966   1.342       .  D
C965        H967   1.087       .  S
C966        H968   1.087       .  S
C969        C970   1.346       .  D
C970        H972   1.086       .  S
C973        C974   1.343       .  D
C973        H975   1.087       .  S
C977        C978   1.345       .  D
C977        H979   1.087       .  S
C978        H980   1.087       .  S
C981        C982   1.343       .  D
C982        H984   1.087       .  S
C985        C986   1.346       .  D
C985        H987   1.087       .  S
C986        H988   1.087       .  S
C989        C990   1.347       .  D
C989        H991   1.087       .  S
C990        H992   1.087       .  S
C1001      C1002   1.347       .  D
C1001      H1003   1.087       .  S
C1005      C1006   1.347       .  D
C1005      H1007   1.087       .  S
C1009      C1010   1.342       .  D
C1009      H1011   1.087       .  S
C1010      H1012   1.087       .  S
C1013      C1014   1.342       .  D
C1013      H1015   1.087       .  S
C1014      H1016   1.087       .  S
C1017      C1018   1.339   1_556  D
C1018      H1020   1.087       .  S
C1021      C1022   1.342   1_556  D
C1021      H1023   1.087       .  S
C1025      C1026   1.342       .  D
C1026      H1028   1.087       .  S
C1029      C1030   1.341       .  D
C1030      H1032   1.087       .  S
C1033      C1034   1.346       .  D
C1033      H1035   1.087       .  S
C1034      H1036   1.087       .  S
C1037      C1038   1.343       .  D
C1037      H1039   1.087       .  S
C1038      H1040   1.087   1_545  S
C1041      C1042   1.342       .  D
C1045      C1046   1.342   1_455  D
C1049      C1050   1.345   1_556  D
C1049      H1051   1.087       .  S
C1053      C1054   1.344       .  D
C1053      H1055   1.087   1_556  S
