geometry optimzed in LAMMPS
_audit_creation_date              2020-11-30 
_audit_creation_method            'lammps2cif' 
_symmetry_space_group_name_H-M    'P1' 
_symmetry_Int_Tables_number       1 
_symmetry_cell_setting            triclinic 
loop_ 
_symmetry_equiv_pos_as_xyz 
  x,y,z 
_cell_length_a                    35.33474431 
_cell_length_b                    24.862256287035713 
_cell_length_c                    26.200295936904155 
_cell_angle_alpha                 90.01633114184911 
_cell_angle_beta                  89.96336868266383 
_cell_angle_gamma                 89.90548529548039 
loop_ 
_atom_site_label 
_atom_site_type_symbol 
_atom_site_fract_x 
_atom_site_fract_y 
_atom_site_fract_z 
_atom_site_charge 
O1          O  0.44287927  0.99991190  0.03240947    -0.70300
O2          O  0.04952060  0.99984379  0.05029226    -0.70600
O3          O  0.49612918  0.07626052  0.04138327    -0.70400
O4          O  0.99625160  0.92347696  0.04134374    -0.70400
O5          O  0.49621448  0.92323311  0.45891673    -0.71200
O6          O  0.99617573  0.07601103  0.45877922    -0.70400
O7          O  0.04953552  0.99953621  0.44990345    -0.70400
O8          O  0.44287360  0.99973774  0.46783708    -0.70500
V9          V  0.49634231  0.99987070  0.03975095     1.35200
V10         V  0.99634468  0.99962607  0.46046469     1.35200
C11         C  0.42849442  0.99978559  0.51206224     0.78900
C12         C  0.07144751  0.99966262  0.48799048     0.78900
C13         C  0.99991273  0.10203553  0.00018539     0.78800
C14         C  0.00007519  0.89768588  0.00013593     0.78800
O15         O  0.44284178  0.99963117  0.28228805    -0.70300
O16         O  0.04949779  0.99948561  0.30021852    -0.70600
O17         O  0.49613627  0.07592910  0.29120998    -0.70400
O18         O  0.99618495  0.92315298  0.29136294    -0.70400
O19         O  0.50385932  0.92303081  0.20897739    -0.70400
O20         O  0.00372213  0.07580321  0.20880971    -0.70400
O21         O  0.05710863  0.99943706  0.21789285    -0.70400
O22         O  0.45045517  0.99943407  0.19996404    -0.70500
V23         V  0.49631153  0.99953985  0.28966638     1.35200
V24         V  0.00364047  0.99941982  0.21051561     1.35200
C25         C  0.42851032  0.99958915  0.23805686     0.78900
C26         C  0.07144104  0.99952330  0.26212325     0.78900
C27         C  0.99991986  0.10165433  0.24998439     0.78800
C28         C  0.00002724  0.89730461  0.25019303     0.78800
O29         O  0.29956006  0.00018375  0.44982716    -0.70300
O30         O  0.19287706  0.00024325  0.46773718    -0.70600
O31         O  0.24614391  0.07662377  0.45866932    -0.70400
O32         O  0.24627630  0.92384941  0.45880718    -0.70400
O33         O  0.24627073  0.92372334  0.04151658    -0.70400
O34         O  0.24612941  0.07650707  0.04156843    -0.70400
O35         O  0.19287501  0.00011905  0.03252923    -0.70400
O36         O  0.29954370  0.00008082  0.05046839    -0.70500
V37         V  0.24635850  0.00023278  0.46036240     1.35200
V38         V  0.24635094  0.00011037  0.03992126     1.35200
C39         C  0.32148256  0.00005579  0.01236503     0.78900
C40         C  0.17855375  0.00011165  0.98828799     0.78900
C41         C  0.24994076  0.10246402  0.49983612     0.78800
C42         C  0.25001905  0.89811351  0.50003428     0.78800
O43         O  0.30710449  0.00034856  0.21786329    -0.70300
O44         O  0.20044501  0.00052752  0.19996168    -0.70600
O45         O  0.25376561  0.07684171  0.20886121    -0.70400
O46         O  0.25380190  0.92407103  0.20888400    -0.70400
O47         O  0.24622613  0.92411737  0.29128593    -0.70400
O48         O  0.24610371  0.07689848  0.29124860    -0.70400
O49         O  0.19284494  0.00050389  0.28228801    -0.70400
O50         O  0.29949997  0.00047027  0.30019014    -0.70500
V51         V  0.25363341  0.00045603  0.21049681     1.35200
V52         V  0.24631484  0.00050518  0.28964927     1.35200
C53         C  0.32144012  0.00034703  0.26209277     0.78900
C54         C  0.17850634  0.00045785  0.23806194     0.78900
C55         C  0.24992882  0.10265846  0.25004890     0.78800
C56         C  0.25001744  0.89830632  0.25008572     0.78800
O57         O  0.03082223  0.70791535  0.00004514    -0.70300
O58         O  0.03070471  0.55494838  0.49999313    -0.70600
O59         O  0.03071176  0.63132885  0.42757238    -0.70400
O60         O  0.03076248  0.63149988  0.07250299    -0.70400
O61         O  0.46922813  0.63168129  0.07253728    -0.70400
O62         O  0.46917667  0.63148871  0.42763682    -0.70400
O63         O  0.46921153  0.55532696  0.00004956    -0.70400
O64         O  0.46919394  0.70790381  0.50013157    -0.70500
V65         V  0.02952551  0.63133400  0.50003259     1.35200
V66         V  0.47038465  0.63149983  0.50009732     1.35200
C67         C  0.99998151  0.73360884  0.50012669     0.78900
C68         C  0.99993508  0.52910164  0.50002786     0.78900
C69         C  0.99994176  0.63136590  0.40301269     0.78800
C70         C  0.99999031  0.63152821  0.09711463     0.78800
O71         O  0.46919544  0.70775296  0.25014697    -0.70300
O72         O  0.46917125  0.55497355  0.25004137    -0.70600
O73         O  0.46917642  0.63133591  0.32255020    -0.70400
O74         O  0.46920438  0.63141316  0.17762087    -0.70400
O75         O  0.03073883  0.63123195  0.17758982    -0.70400
O76         O  0.03071142  0.63116667  0.32251093    -0.70400
O77         O  0.03070198  0.55480122  0.25001211    -0.70400
O78         O  0.03075676  0.70757500  0.25010737    -0.70500
V79         V  0.47038596  0.63135985  0.25008652     1.35200
V80         V  0.02952671  0.63119130  0.25005361     1.35200
C81         C  0.99998350  0.73345229  0.25015485     0.78900
C82         C  0.99993091  0.52895615  0.25003168     0.78900
C83         C  0.99994140  0.63127840  0.34712260     0.78800
C84         C  0.99997715  0.63138073  0.15301086     0.78800
O85         O  0.28083866  0.70821704  0.00004846    -0.70300
O86         O  0.28071253  0.55563650  0.49995188    -0.70600
O87         O  0.28071270  0.63204642  0.42752469    -0.70400
O88         O  0.28077272  0.63182632  0.07246000    -0.70400
O89         O  0.21923771  0.63201603  0.07249290    -0.70400
O90         O  0.21917796  0.63219354  0.42758920    -0.70400
O91         O  0.21921903  0.55564524  0.99997619    -0.70400
O92         O  0.21918848  0.70857152  0.50007919    -0.70500
V93         V  0.27952690  0.63202325  0.49998759     1.35200
V94         V  0.22038586  0.63217924  0.50005269     1.35200
C95         C  0.24997474  0.73427442  0.50006585     0.78900
C96         C  0.24994500  0.52978451  0.49999221     0.78900
C97         C  0.24994287  0.63215190  0.40296338     0.78800
C98         C  0.24999978  0.63197273  0.09706867     0.78800
O99         O  0.21919277  0.70873634  0.25003093    -0.70300
O100        O  0.21918288  0.55595603  0.25002593    -0.70600
O101        O  0.21917889  0.63234385  0.32249424    -0.70400
O102        O  0.21921114  0.63228860  0.17756558    -0.70400
O103        O  0.28074604  0.63211231  0.17753801    -0.70400
O104        O  0.28071357  0.63219254  0.32245758    -0.70400
O105        O  0.28071400  0.55579440  0.25000546    -0.70400
O106        O  0.28075348  0.70856955  0.24998822    -0.70500
V107        V  0.22039042  0.63233637  0.25002815     1.35200
V108        V  0.27953117  0.63217872  0.24999824     1.35200
C109        C  0.24997815  0.73444401  0.25001826     0.78900
C110        C  0.24994498  0.52994575  0.25000735     0.78900
C111        C  0.24994313  0.63223386  0.34706941     0.78800
C112        C  0.24998499  0.63212675  0.15295948     0.78800
O113        O  0.03070368  0.29138765  0.49996680    -0.70300
O114        O  0.03070458  0.44434092  0.00000635    -0.70600
O115        O  0.03067986  0.36794824  0.07245530    -0.70400
O116        O  0.03069025  0.36775565  0.42751799    -0.70400
O117        O  0.46915534  0.36791707  0.42757763    -0.70400
O118        O  0.46914462  0.36814282  0.07250356    -0.70400
O119        O  0.46916351  0.44431288  0.50005663    -0.70400
O120        O  0.46911082  0.29175037  0.00005449    -0.70500
V121        V  0.02948688  0.36795677  0.99999824     1.35200
V122        V  0.47034564  0.36813240  0.00004194     1.35200
C123        C  0.49988376  0.26587324  0.00004715     0.78900
C124        C  0.49994707  0.47036391  0.00002517     0.78900
C125        C  0.99991154  0.36799204  0.09707058     0.78800
C126        C  0.99992151  0.36780573  0.40295507     0.78800
O127        O  0.46913323  0.29138549  0.24998098    -0.70300
O128        O  0.46915447  0.44416759  0.25008426    -0.70600
O129        O  0.46914561  0.36784583  0.17757796    -0.70400
O130        O  0.46915122  0.36776276  0.32249869    -0.70400
O131        O  0.03068597  0.36762445  0.32244195    -0.70400
O132        O  0.03068067  0.36768263  0.17752144    -0.70400
O133        O  0.03068538  0.44401400  0.25001697    -0.70400
O134        O  0.03069376  0.29123518  0.24993600    -0.70500
V135        V  0.47034592  0.36777912  0.25003591     1.35200
V136        V  0.02948664  0.36763408  0.24998149     1.35200
C137        C  0.99991220  0.26551893  0.24994279     0.78900
C138        C  0.99992206  0.47002144  0.25004614     0.78900
C139        C  0.99991220  0.36783712  0.15295859     0.78800
C140        C  0.99991932  0.36772653  0.34706307     0.78800
O141        O  0.28072959  0.29206448  0.49988344    -0.70300
O142        O  0.28071453  0.44466132  0.99991102    -0.70600
O143        O  0.28069773  0.36836518  0.07241153    -0.70400
O144        O  0.28071269  0.36849399  0.42746635    -0.70400
O145        O  0.21917742  0.36864869  0.42752411    -0.70400
O146        O  0.21916277  0.36854795  0.07246238    -0.70400
O147        O  0.21917942  0.44499135  0.50002274    -0.70400
O148        O  0.21913427  0.29205116  0.00007414    -0.70500
V149        V  0.27950254  0.36828039  0.99995348     1.35200
V150        V  0.22036218  0.36844714  0.99999999     1.35200
C151        C  0.24990839  0.26617111  0.00010346     0.78900
C152        C  0.24995554  0.47068003  0.99992806     0.78900
C153        C  0.24993012  0.36851701  0.09702875     0.78800
C154        C  0.24994409  0.36861245  0.40290473     0.78800
O155        O  0.21915512  0.29238129  0.24999626    -0.70300
O156        O  0.21917320  0.44515838  0.25000811    -0.70600
O157        O  0.21916546  0.36875006  0.17753895    -0.70400
O158        O  0.21917302  0.36878180  0.32245685    -0.70400
O159        O  0.28070838  0.36864132  0.32239868    -0.70400
O160        O  0.28070057  0.36859470  0.17748082    -0.70400
O161        O  0.28070429  0.44500898  0.24994361    -0.70400
O162        O  0.28071622  0.29223275  0.24994488    -0.70500
V163        V  0.22036651  0.36876862  0.24999777     1.35200
V164        V  0.27950766  0.36862629  0.24994177     1.35200
C165        C  0.24993471  0.26651758  0.24997811     0.78900
C166        C  0.24993987  0.47101378  0.24998550     0.78900
C167        C  0.24993177  0.36863479  0.15291822     0.78800
C168        C  0.24994178  0.36868987  0.34701825     0.78800
C169        C  0.24992482  0.16034674  0.25003227    -0.11800
C170        C  0.24993120  0.20882855  0.25000420    -0.13400
C171        C  0.25001049  0.84061815  0.25007937    -0.11800
C172        C  0.24999213  0.79213563  0.25004946    -0.13400
C173        C  0.24993887  0.16015905  0.49978870    -0.11800
C174        C  0.24994658  0.20864542  0.49981072    -0.13400
C175        C  0.25001169  0.84043345  0.50008453    -0.11800
C176        C  0.24999051  0.79195619  0.50008928    -0.13400
C177        C  0.99990909  0.20782629  0.24992032    -0.11800
C178        C  0.99990836  0.15934322  0.24993224    -0.13400
C179        C  0.00000219  0.79113863  0.25021334    -0.11800
C180        C  0.00002181  0.83961889  0.25023344    -0.13400
C181        C  0.36276072  0.00016970  0.26973229    -0.15000
C182        C  0.38718903  0.99975822  0.23041332    -0.30200
H183        H  0.37328162  0.00033844  0.30870223     0.14000
H184        H  0.37666697  0.99958516  0.19144374     0.14600
C185        C  0.11276212  0.99973222  0.26975929    -0.15000
C186        C  0.13718393  0.00025484  0.23043366    -0.30200
H187        H  0.12328775  0.99952975  0.30872608     0.14000
H188        H  0.12665564  0.00046135  0.19146792     0.14600
C189        C  0.99987540  0.15971545  0.00017556    -0.11800
C190        C  0.49986803  0.20819239  0.00011560    -0.13400
C191        C  0.00008964  0.83999148  0.00010736    -0.11800
C192        C  0.00007925  0.79150538  0.00008630    -0.13400
C193        C  0.38716360  0.99990091  0.51967329    -0.15000
C194        C  0.36280681  0.00000764  0.01996457    -0.30200
H195        H  0.37665736  0.99998526  0.94164885     0.14000
H196        H  0.37336545  0.00000933  0.44136570     0.14600
C197        C  0.11277388  0.99978484  0.48032625    -0.15000
C198        C  0.13723643  0.00005225  0.98059907    -0.30200
H199        H  0.12332078  0.99957796  0.44135048     0.14000
H200        H  0.12673776  0.00009850  0.94161835     0.14600
O201        O  0.45039800  0.99974692  0.55016359    -0.70300
O202        O  0.05707856  0.99971916  0.53222676    -0.70600
O203        O  0.50367013  0.07609612  0.54118239    -0.70400
O204        O  0.00382307  0.92332411  0.54129918    -0.70400
O205        O  0.50387300  0.92347577  0.95895002    -0.71200
O206        O  0.00373811  0.07624091  0.95898611    -0.70400
O207        O  0.05713590  0.99984969  0.96796774    -0.70400
O208        O  0.45046128  0.99989657  0.95007948    -0.70500
V209        V  0.50359861  0.99971413  0.53961539     1.35200
V210        V  0.00365677  0.99986312  0.96059767     1.35200
C211        C  0.42853135  0.99992453  0.98819258     0.78900
C212        C  0.07146585  0.99986316  0.01220432     0.78900
C213        C  0.99991376  0.10183841  0.49996165     0.78800
C214        C  0.00002384  0.89748774  0.50013104     0.78800
O215        O  0.44289582  0.99962823  0.78206125    -0.70300
O216        O  0.04955151  0.99947659  0.79997358    -0.70600
O217        O  0.49618141  0.07591943  0.79106606    -0.70400
O218        O  0.99624417  0.92315187  0.79104504    -0.70400
O219        O  0.50390282  0.92311973  0.70865729    -0.70400
O220        O  0.00377019  0.07590235  0.70866608    -0.70400
O221        O  0.05715828  0.99951542  0.71764838    -0.70400
O222        O  0.45050189  0.99954676  0.69973475    -0.70500
V223        V  0.49636494  0.99953626  0.78943159     1.35200
V224        V  0.00368778  0.99951355  0.71027961     1.35200
C225        C  0.42856090  0.99964588  0.73783206     0.78900
C226        C  0.07149323  0.99954912  0.76187731     0.78900
C227        C  0.99996251  0.10169829  0.74987221     0.78800
C228        C  0.00007942  0.89734758  0.74985063     0.78800
O229        O  0.30714457  0.00006997  0.96814173    -0.70300
O230        O  0.20050677  0.00013994  0.95020762    -0.70600
O231        O  0.25377419  0.07649705  0.95917873    -0.70400
O232        O  0.25389561  0.92373177  0.95912198    -0.70400
O233        O  0.25375615  0.92394723  0.54121279    -0.70400
O234        O  0.25374605  0.07672262  0.54105288    -0.70400
O235        O  0.20041075  0.00044203  0.55006213    -0.70400
O236        O  0.30707526  0.00019716  0.53215531    -0.70500
V237        V  0.25368379  0.00011221  0.96077109     1.35200
V238        V  0.25360269  0.00033058  0.53951477     1.35200
C239        C  0.32145925  0.00014143  0.48793300     0.78900
C240        C  0.17850319  0.00031295  0.51197045     0.78900
C241        C  0.24993376  0.10229269  0.00037789     0.78800
C242        C  0.25009811  0.89794282  0.00030644     0.78800
O243        O  0.30715782  0.00031323  0.71766150    -0.70300
O244        O  0.20050391  0.00044132  0.69974291    -0.70600
O245        O  0.25380490  0.07678106  0.70861413    -0.70400
O246        O  0.25387022  0.92400317  0.70873193    -0.70400
O247        O  0.24628045  0.92411073  0.79113147    -0.70400
O248        O  0.24614370  0.07687963  0.79100195    -0.70400
O249        O  0.19289410  0.00048081  0.78206882    -0.70400
O250        O  0.29955141  0.00047527  0.79998668    -0.70500
V251        V  0.25368861  0.00039339  0.71029162     1.35200
V252        V  0.24636395  0.00049264  0.78944314     1.35200
C253        C  0.32149311  0.00034219  0.76188963     0.78900
C254        C  0.17856132  0.00040540  0.73783781     0.78900
C255        C  0.24996208  0.10261725  0.74979102     0.78800
C256        C  0.25008154  0.89826910  0.74995194     0.78800
O257        O  0.03075433  0.70772703  0.50007674    -0.70300
O258        O  0.03074233  0.55513362  0.00002475    -0.70600
O259        O  0.03078350  0.63148636  0.92757013    -0.70400
O260        O  0.03073278  0.63129229  0.57248873    -0.70400
O261        O  0.46919763  0.63147835  0.57255751    -0.70400
O262        O  0.46924893  0.63169744  0.92761498    -0.70400
O263        O  0.46917368  0.55511581  0.50007313    -0.70400
O264        O  0.46926203  0.70811342  0.00009819    -0.70500
V265        V  0.02957813  0.63152119  0.00003689     1.35200
V266        V  0.47043787  0.63170976  0.00007423     1.35200
C267        C  0.00005366  0.73380791  0.00007453     0.78900
C268        C  0.99996709  0.52929928  0.00003253     0.78900
C269        C  0.00001731  0.63154122  0.90299915     0.78800
C270        C  0.99996876  0.63134547  0.59711378     0.78800
O271        O  0.46924360  0.70779533  0.75004314    -0.70300
O272        O  0.46920425  0.55501429  0.75011556    -0.70600
O273        O  0.46924285  0.63147007  0.82254725    -0.70400
O274        O  0.46921499  0.63135137  0.67762780    -0.70400
O275        O  0.03075017  0.63117243  0.67755533    -0.70400
O276        O  0.03077750  0.63127439  0.82247777    -0.70400
O277        O  0.03073508  0.55483071  0.75003653    -0.70400
O278        O  0.03080461  0.70760554  0.74997885    -0.70500
V279        V  0.47042602  0.63140012  0.75008472     1.35200
V280        V  0.02956690  0.63122019  0.75001564     1.35200
C281        C  0.00003388  0.73348965  0.74998322     0.78900
C282        C  0.99996165  0.52899141  0.75007081     0.78900
C283        C  0.00001380  0.63142076  0.84710574     0.78800
C284        C  0.99997812  0.63127670  0.65300080     0.78800
O285        O  0.28075010  0.70840430  0.50002607    -0.70300
O286        O  0.28074983  0.55544827  0.99994949    -0.70600
O287        O  0.28079410  0.63187002  0.92753190    -0.70400
O288        O  0.28073409  0.63200595  0.57244679    -0.70400
O289        O  0.21919913  0.63218369  0.57251625    -0.70400
O290        O  0.21925909  0.63208480  0.92757765    -0.70400
O291        O  0.21918160  0.55579376  0.50003424    -0.70400
O292        O  0.21927693  0.70842258  0.00009890    -0.70500
V293        V  0.27958937  0.63183742  0.99999718     1.35200
V294        V  0.22044824  0.63203174  0.00003423     1.35200
C295        C  0.25007107  0.73410573  0.00010684     0.78900
C296        C  0.24997406  0.52961542  0.99994584     0.78900
C297        C  0.25002735  0.63202510  0.90296264     0.78800
C298        C  0.24997037  0.63211386  0.59707404     0.78800
O299        O  0.21924606  0.70870838  0.75007025    -0.70300
O300        O  0.21921220  0.55592360  0.75004634    -0.70600
O301        O  0.21925026  0.63229508  0.82251659    -0.70400
O302        O  0.21921799  0.63229235  0.67759565    -0.70400
O303        O  0.28075286  0.63212015  0.67752049    -0.70400
O304        O  0.28078521  0.63210145  0.82244360    -0.70400
O305        O  0.28074295  0.55574453  0.74996227    -0.70400
O306        O  0.28080679  0.70852243  0.75000505    -0.70500
V307        V  0.22043109  0.63230781  0.75005565     1.35200
V308        V  0.27957182  0.63213207  0.74998353     1.35200
C309        C  0.25003554  0.73440653  0.75003796     0.78900
C310        C  0.24997057  0.52990253  0.75001039     0.78900
C311        C  0.25002227  0.63214648  0.84707217     0.78800
C312        C  0.24998047  0.63217568  0.65296552     0.78800
O313        O  0.03067264  0.29156813  0.99999734    -0.70300
O314        O  0.03069444  0.44416184  0.49998549    -0.70600
O315        O  0.03070101  0.36778396  0.57244307    -0.70400
O316        O  0.03069058  0.36792796  0.92753696    -0.70400
O317        O  0.46915553  0.36809859  0.92758053    -0.70400
O318        O  0.46916628  0.36792427  0.57250382    -0.70400
O319        O  0.46917365  0.44452419  0.00003985    -0.70400
O320        O  0.46914211  0.29154140  0.50001714    -0.70500
V321        V  0.02949774  0.36777855  0.49998050     1.35200
V322        V  0.47035676  0.36792395  0.50003875     1.35200
C323        C  0.49992059  0.26567805  0.49997696     0.78900
C324        C  0.49992999  0.47016804  0.50002183     0.78900
C325        C  0.99993561  0.36783464  0.59706745     0.78800
C326        C  0.99992563  0.36796454  0.90296618     0.78800
O327        O  0.46915253  0.29142445  0.75003501    -0.70300
O328        O  0.46917916  0.44420652  0.75005538    -0.70600
O329        O  0.46917147  0.36781844  0.67758258    -0.70400
O330        O  0.46916584  0.36785899  0.82250509    -0.70400
O331        O  0.03070079  0.36769403  0.82245838    -0.70400
O332        O  0.03070609  0.36767454  0.67753009    -0.70400
O333        O  0.03071014  0.44404691  0.75001466    -0.70400
O334        O  0.03071345  0.29127201  0.74997543    -0.70500
V335        V  0.47036714  0.36781723  0.75004364     1.35200
V336        V  0.02950788  0.36766822  0.74999595     1.35200
C337        C  0.99993172  0.26555766  0.74998938     0.78900
C338        C  0.99994828  0.47005712  0.75004810     0.78900
C339        C  0.99993852  0.36777497  0.65296241     0.78800
C340        C  0.99993146  0.36783434  0.84707444     0.78800
O341        O  0.28069444  0.29187822  0.00001640    -0.70300
O342        O  0.28071040  0.44484891  0.49995283    -0.70600
O343        O  0.28071929  0.36847285  0.57238649    -0.70400
O344        O  0.28070394  0.36823763  0.92748763    -0.70400
O345        O  0.21916970  0.36840095  0.92753415    -0.70400
O346        O  0.21918451  0.36860361  0.57244378    -0.70400
O347        O  0.21918374  0.44483673  0.99994971    -0.70400
O348        O  0.21916931  0.29220878  0.49992961    -0.70500
V349        V  0.27951836  0.36846663  0.49992544     1.35200
V350        V  0.22037763  0.36860365  0.49998104     1.35200
C351        C  0.24994919  0.26634312  0.49987633     0.78900
C352        C  0.24994422  0.47085062  0.49999019     0.78900
C353        C  0.24995288  0.36857921  0.59700806     0.78800
C354        C  0.24993863  0.36837094  0.90291559     0.78800
O355        O  0.21916464  0.29233181  0.74991201    -0.70300
O356        O  0.21919076  0.44511216  0.75003646    -0.70600
O357        O  0.21918559  0.36875609  0.67751848    -0.70400
O358        O  0.21917801  0.36865976  0.82244515    -0.70400
O359        O  0.28071231  0.36849699  0.82239889    -0.70400
O360        O  0.28072037  0.36861157  0.67746886    -0.70400
O361        O  0.28072132  0.44495438  0.74999614    -0.70400
O362        O  0.28072590  0.29217922  0.74985578    -0.70500
V363        V  0.22037955  0.36871777  0.74997904     1.35200
V364        V  0.27952015  0.36856955  0.74993306     1.35200
C365        C  0.24994374  0.26646751  0.74985335     0.78900
C366        C  0.24995912  0.47096546  0.75001818     0.78900
C367        C  0.24995353  0.36866048  0.65290061     0.78800
C368        C  0.24994332  0.36851413  0.84701732     0.78800
C369        C  0.24994469  0.16030211  0.74976269    -0.11800
C370        C  0.24994098  0.20878192  0.74978934    -0.13400
C371        C  0.25007912  0.84058086  0.74999620    -0.11800
C372        C  0.25005819  0.79209828  0.75002609    -0.13400
C373        C  0.24990144  0.15998742  0.00036798    -0.11800
C374        C  0.24989630  0.20847358  0.00025716    -0.13400
C375        C  0.25011365  0.84026313  0.00026640    -0.11800
C376        C  0.25010096  0.79178635  0.00019367    -0.13400
C377        C  0.99993034  0.20786730  0.74994042    -0.11800
C378        C  0.99993957  0.15938543  0.74989425    -0.13400
C379        C  0.00005768  0.79117825  0.74991090    -0.11800
C380        C  0.00007828  0.83965976  0.74985801    -0.13400
C381        C  0.36281542  0.00018541  0.76952270    -0.15000
C382        C  0.38723961  0.99981213  0.73019742    -0.30200
H383        H  0.37334180  0.00033790  0.80848979     0.14000
H384        H  0.37671520  0.99966454  0.69122970     0.14600
C385        C  0.11281465  0.99973365  0.76951537    -0.15000
C386        C  0.13724104  0.00021721  0.73019612    -0.30200
H387        H  0.12333877  0.99953754  0.80848454     0.14000
H388        H  0.12671924  0.00040877  0.69122642     0.14600
C389        C  0.99990505  0.15951865  0.49992576    -0.11800
C390        C  0.49991330  0.20799611  0.49994029    -0.13400
C391        C  0.00002087  0.83979277  0.50017841    -0.11800
C392        C  0.00000068  0.79130647  0.50017174    -0.13400
C393        C  0.38720653  0.99997375  0.98060591    -0.15000
C394        C  0.36279038  0.00001727  0.48032724    -0.30200
H395        H  0.37658894  0.99990881  0.55863622     0.14000
H396        H  0.37335415  0.99999586  0.05892214     0.14600
C397        C  0.11278366  0.99992004  0.01988420    -0.15000
C398        C  0.13717646  0.00019870  0.51962911    -0.30200
H399        H  0.12328362  0.99987465  0.05886532     0.14000
H400        H  0.12662912  0.00040626  0.55860351     0.14600
O401        O  0.94287928  0.99991219  0.03240955    -0.70300
O402        O  0.54952065  0.99984386  0.05029225    -0.70600
O403        O  0.99612934  0.07626054  0.04138340    -0.70400
O404        O  0.49625170  0.92347694  0.04134370    -0.70400
O405        O  0.99621445  0.92323300  0.45891673    -0.71200
O406        O  0.49617578  0.07601107  0.45877922    -0.70400
O407        O  0.54953549  0.99953620  0.44990342    -0.70400
O408        O  0.94287364  0.99973771  0.46783703    -0.70500
V409        V  0.99634231  0.99987074  0.03975100     1.35200
V410        V  0.49634468  0.99962613  0.46046471     1.35200
C411        C  0.92849445  0.99978560  0.51206217     0.78900
C412        C  0.57144753  0.99966270  0.48799040     0.78900
C413        C  0.49991276  0.10203553  0.00018530     0.78800
C414        C  0.50007515  0.89768587  0.00013585     0.78800
O415        O  0.94284182  0.99963117  0.28228805    -0.70300
O416        O  0.54949771  0.99948533  0.30021852    -0.70600
O417        O  0.99613627  0.07592927  0.29120986    -0.70400
O418        O  0.49618490  0.92315278  0.29136290    -0.70400
O419        O  0.00385939  0.92303083  0.20897743    -0.70400
O420        O  0.50372208  0.07580305  0.20880981    -0.70400
O421        O  0.55710856  0.99943707  0.21789286    -0.70400
O422        O  0.95045524  0.99943409  0.19996405    -0.70500
V423        V  0.99631159  0.99954001  0.28966636     1.35200
V424        V  0.50364040  0.99941976  0.21051563     1.35200
C425        C  0.92851037  0.99958914  0.23805682     0.78900
C426        C  0.57144099  0.99952313  0.26212325     0.78900
C427        C  0.49991988  0.10165415  0.24998450     0.78800
C428        C  0.50002720  0.89730449  0.25019294     0.78800
O429        O  0.79956004  0.00018375  0.44982714    -0.70300
O430        O  0.69287702  0.00024325  0.46773694    -0.70600
O431        O  0.74614385  0.07662378  0.45866929    -0.70400
O432        O  0.74627624  0.92384944  0.45880711    -0.70400
O433        O  0.74627071  0.92372332  0.04151661    -0.70400
O434        O  0.74612938  0.07650699  0.04156850    -0.70400
O435        O  0.69287498  0.00011904  0.03252925    -0.70400
O436        O  0.79954365  0.00008084  0.05046851    -0.70500
V437        V  0.74635846  0.00023279  0.46036230     1.35200
V438        V  0.74635090  0.00011034  0.03992133     1.35200
C439        C  0.82148257  0.00005571  0.01236519     0.78900
C440        C  0.67855377  0.00011165  0.98828799     0.78900
C441        C  0.74994069  0.10246402  0.49983610     0.78800
C442        C  0.75001905  0.89811350  0.50003418     0.78800
O443        O  0.80710448  0.00034850  0.21786299    -0.70300
O444        O  0.70044502  0.00052780  0.19996146    -0.70600
O445        O  0.75376576  0.07684177  0.20886097    -0.70400
O446        O  0.75380181  0.92407101  0.20888374    -0.70400
O447        O  0.74622609  0.92411741  0.29128571    -0.70400
O448        O  0.74610364  0.07689845  0.29124835    -0.70400
O449        O  0.69284495  0.00050385  0.28228782    -0.70400
O450        O  0.79949997  0.00047028  0.30018988    -0.70500
V451        V  0.75363342  0.00045608  0.21049656     1.35200
V452        V  0.74631483  0.00050518  0.28964906     1.35200
C453        C  0.82144011  0.00034702  0.26209251     0.78900
C454        C  0.67850636  0.00045793  0.23806176     0.78900
C455        C  0.74992883  0.10265846  0.25004870     0.78800
C456        C  0.75001738  0.89830633  0.25008550     0.78800
O457        O  0.53082221  0.70791532  0.00004514    -0.70300
O458        O  0.53070469  0.55494857  0.49999306    -0.70600
O459        O  0.53071166  0.63132893  0.42757222    -0.70400
O460        O  0.53076253  0.63149991  0.07250300    -0.70400
O461        O  0.96922810  0.63168153  0.07253728    -0.70400
O462        O  0.96917679  0.63148869  0.42763688    -0.70400
O463        O  0.96921156  0.55532693  0.00004959    -0.70400
O464        O  0.96919405  0.70790368  0.50013157    -0.70500
V465        V  0.52952545  0.63133418  0.50003244     1.35200
V466        V  0.97038473  0.63149975  0.50009734     1.35200
C467        C  0.49998141  0.73360897  0.50012668     0.78900
C468        C  0.49993504  0.52910178  0.50002786     0.78900
C469        C  0.49994167  0.63136590  0.40301260     0.78800
C470        C  0.49999035  0.63152813  0.09711463     0.78800
O471        O  0.96919553  0.70775303  0.25014693    -0.70300
O472        O  0.96917120  0.55497358  0.25004146    -0.70600
O473        O  0.96917641  0.63133617  0.32255026    -0.70400
O474        O  0.96920435  0.63141314  0.17762087    -0.70400
O475        O  0.53073887  0.63123196  0.17758981    -0.70400
O476        O  0.53071145  0.63116670  0.32251094    -0.70400
O477        O  0.53070204  0.55480120  0.25001205    -0.70400
O478        O  0.53075668  0.70757499  0.25010737    -0.70500
V479        V  0.97038592  0.63135992  0.25008653     1.35200
V480        V  0.52952677  0.63119130  0.25005361     1.35200
C481        C  0.49998340  0.73345223  0.25015486     0.78900
C482        C  0.49993096  0.52895611  0.25003154     0.78900
C483        C  0.49994137  0.63127831  0.34712256     0.78800
C484        C  0.49997718  0.63138073  0.15301086     0.78800
O485        O  0.78083861  0.70821698  0.00004846    -0.70300
O486        O  0.78071260  0.55563646  0.49995187    -0.70600
O487        O  0.78071269  0.63204641  0.42752467    -0.70400
O488        O  0.78077274  0.63182631  0.07246001    -0.70400
O489        O  0.71923773  0.63201591  0.07249289    -0.70400
O490        O  0.71917797  0.63219354  0.42758916    -0.70400
O491        O  0.71921903  0.55564501  0.99997613    -0.70400
O492        O  0.71918852  0.70857147  0.50007919    -0.70500
V493        V  0.77952695  0.63202322  0.49998757     1.35200
V494        V  0.72038594  0.63217923  0.50005268     1.35200
C495        C  0.74997478  0.73427436  0.50006585     0.78900
C496        C  0.74994508  0.52978450  0.49999221     0.78900
C497        C  0.74994286  0.63215190  0.40296334     0.78800
C498        C  0.74999978  0.63197272  0.09706867     0.78800
O499        O  0.71919278  0.70873632  0.25003093    -0.70300
O500        O  0.71918292  0.55595601  0.25002593    -0.70600
O501        O  0.71917894  0.63234385  0.32249421    -0.70400
O502        O  0.71921108  0.63228860  0.17756558    -0.70400
O503        O  0.78074599  0.63211232  0.17753802    -0.70400
O504        O  0.78071362  0.63219254  0.32245756    -0.70400
O505        O  0.78071405  0.55579443  0.25000545    -0.70400
O506        O  0.78075349  0.70856957  0.24998821    -0.70500
V507        V  0.72039041  0.63233637  0.25002815     1.35200
V508        V  0.77953117  0.63217873  0.24999822     1.35200
C509        C  0.74997816  0.73444400  0.25001826     0.78900
C510        C  0.74994502  0.52994576  0.25000735     0.78900
C511        C  0.74994319  0.63223386  0.34706938     0.78800
C512        C  0.74998496  0.63212675  0.15295948     0.78800
O513        O  0.53070369  0.29138784  0.49996680    -0.70300
O514        O  0.53070446  0.44434092  0.00000626    -0.70600
O515        O  0.53067984  0.36794824  0.07245518    -0.70400
O516        O  0.53069024  0.36775576  0.42751801    -0.70400
O517        O  0.96915534  0.36791703  0.42757767    -0.70400
O518        O  0.96914463  0.36814282  0.07250355    -0.70400
O519        O  0.96916353  0.44431273  0.50005664    -0.70400
O520        O  0.96911090  0.29175035  0.00005455    -0.70500
V521        V  0.52948682  0.36795677  0.99999812     1.35200
V522        V  0.97034570  0.36813240  0.00004196     1.35200
C523        C  0.99988385  0.26587324  0.00004731     0.78900
C524        C  0.99994718  0.47036391  0.00002518     0.78900
C525        C  0.49991155  0.36799205  0.09707054     0.78800
C526        C  0.49992150  0.36780576  0.40295506     0.78800
O527        O  0.96913311  0.29138571  0.24998098    -0.70300
O528        O  0.96915443  0.44416774  0.25008423    -0.70600
O529        O  0.96914553  0.36784595  0.17757793    -0.70400
O530        O  0.96915114  0.36776288  0.32249873    -0.70400
O531        O  0.53068607  0.36762438  0.32244196    -0.70400
O532        O  0.53068078  0.36768249  0.17752139    -0.70400
O533        O  0.53068543  0.44401390  0.25001673    -0.70400
O534        O  0.53069390  0.29123500  0.24993602    -0.70500
V535        V  0.97034582  0.36777931  0.25003591     1.35200
V536        V  0.52948676  0.36763394  0.24998145     1.35200
C537        C  0.49991233  0.26551872  0.24994279     0.78900
C538        C  0.49992209  0.47002134  0.25004599     0.78900
C539        C  0.49991229  0.36783709  0.15295858     0.78800
C540        C  0.49991941  0.36772650  0.34706305     0.78800
O541        O  0.78072953  0.29206439  0.49988321    -0.70300
O542        O  0.78071450  0.44466122  0.99991101    -0.70600
O543        O  0.78069775  0.36836514  0.07241153    -0.70400
O544        O  0.78071266  0.36849401  0.42746635    -0.70400
O545        O  0.71917738  0.36864869  0.42752410    -0.70400
O546        O  0.71916279  0.36854765  0.07246241    -0.70400
O547        O  0.71917939  0.44499138  0.50002274    -0.70400
O548        O  0.71913424  0.29205096  0.00007434    -0.70500
V549        V  0.77950250  0.36828034  0.99995347     1.35200
V550        V  0.72036213  0.36844698  0.00000004     1.35200
C551        C  0.74990839  0.26617099  0.00010353     0.78900
C552        C  0.74995553  0.47067989  0.99992799     0.78900
C553        C  0.74993015  0.36851679  0.09702875     0.78800
C554        C  0.74994403  0.36861246  0.40290473     0.78800
O555        O  0.71915506  0.29238130  0.24999626    -0.70300
O556        O  0.71917326  0.44515840  0.25000811    -0.70600
O557        O  0.71916548  0.36875005  0.17753894    -0.70400
O558        O  0.71917300  0.36878181  0.32245685    -0.70400
O559        O  0.78070835  0.36864131  0.32239868    -0.70400
O560        O  0.78070059  0.36859469  0.17748083    -0.70400
O561        O  0.78070435  0.44500897  0.24994361    -0.70400
O562        O  0.78071615  0.29223274  0.24994488    -0.70500
V563        V  0.72036650  0.36876863  0.24999777     1.35200
V564        V  0.77950765  0.36862628  0.24994177     1.35200
C565        C  0.74993464  0.26651758  0.24997811     0.78900
C566        C  0.74993996  0.47101378  0.24998550     0.78900
C567        C  0.74993180  0.36863471  0.15291822     0.78800
C568        C  0.74994178  0.36868987  0.34701825     0.78800
C569        C  0.74992477  0.16034673  0.25003219    -0.11800
C570        C  0.74993113  0.20882854  0.25000421    -0.13400
C571        C  0.75001043  0.84061815  0.25007930    -0.11800
C572        C  0.74999210  0.79213562  0.25004947    -0.13400
C573        C  0.74993881  0.16015902  0.49978870    -0.11800
C574        C  0.74994648  0.20864538  0.49981071    -0.13400
C575        C  0.75001181  0.84043341  0.50008434    -0.11800
C576        C  0.74999057  0.79195614  0.50008920    -0.13400
C577        C  0.49990921  0.20782610  0.24992032    -0.11800
C578        C  0.49990843  0.15934303  0.24993229    -0.13400
C579        C  0.50000208  0.79113853  0.25021326    -0.11800
C580        C  0.50002175  0.83961879  0.25023320    -0.13400
C581        C  0.86276069  0.00016970  0.26973201    -0.15000
C582        C  0.88718907  0.99975822  0.23041320    -0.30200
H583        H  0.87328161  0.00033844  0.30870228     0.14000
H584        H  0.87666701  0.99958515  0.19144337     0.14600
C585        C  0.61276211  0.99973192  0.26975924    -0.15000
C586        C  0.63718392  0.00025480  0.23043353    -0.30200
H587        H  0.62328777  0.99952921  0.30872604     0.14000
H588        H  0.62665564  0.00046152  0.19146804     0.14600
C589        C  0.49987542  0.15971546  0.00017553    -0.11800
C590        C  0.99986814  0.20819239  0.00011567    -0.13400
C591        C  0.50008963  0.83999148  0.00010729    -0.11800
C592        C  0.50007930  0.79150537  0.00008629    -0.13400
C593        C  0.88716364  0.99990091  0.51967324    -0.15000
C594        C  0.86280683  0.00000770  0.01996478    -0.30200
H595        H  0.87665757  0.99998561  0.94164965     0.14000
H596        H  0.87336564  0.00000933  0.44136505     0.14600
C597        C  0.61277388  0.99978488  0.48032583    -0.15000
C598        C  0.63723647  0.00005225  0.98059906    -0.30200
H599        H  0.62332047  0.99957807  0.44135090     0.14000
H600        H  0.62673775  0.00009850  0.94161806     0.14600
O601        O  0.95039799  0.99974693  0.55016355    -0.70300
O602        O  0.55707867  0.99971942  0.53222671    -0.70600
O603        O  0.00367013  0.07609606  0.54118239    -0.70400
O604        O  0.50382310  0.92332424  0.54129918    -0.70400
O605        O  0.00387309  0.92347576  0.95895009    -0.71200
O606        O  0.50373827  0.07624092  0.95898604    -0.70400
O607        O  0.55713589  0.99984964  0.96796773    -0.70400
O608        O  0.95046132  0.99989650  0.95007955    -0.70500
V609        V  0.00359855  0.99971403  0.53961537     1.35200
V610        V  0.50365676  0.99986313  0.96059763     1.35200
C611        C  0.92853139  0.99992469  0.98819271     0.78900
C612        C  0.57146586  0.99986317  0.01220426     0.78900
C613        C  0.49991380  0.10183848  0.49996165     0.78800
C614        C  0.50002381  0.89748786  0.50013105     0.78800
O615        O  0.94289584  0.99962810  0.78206114    -0.70300
O616        O  0.54955151  0.99947673  0.79997391    -0.70600
O617        O  0.99618153  0.07591926  0.79106595    -0.70400
O618        O  0.49624420  0.92315199  0.79104524    -0.70400
O619        O  0.00390264  0.92311961  0.70865704    -0.70400
O620        O  0.50377026  0.07590238  0.70866625    -0.70400
O621        O  0.55715841  0.99951546  0.71764876    -0.70400
O622        O  0.95050178  0.99954670  0.69973458    -0.70500
V623        V  0.99636496  0.99953612  0.78943140     1.35200
V624        V  0.50368791  0.99951362  0.71027985     1.35200
C625        C  0.92856087  0.99964573  0.73783198     0.78900
C626        C  0.57149329  0.99954915  0.76187768     0.78900
C627        C  0.49996250  0.10169840  0.74987231     0.78800
C628        C  0.50007951  0.89734769  0.74985083     0.78800
O629        O  0.80714462  0.00006971  0.96814189    -0.70300
O630        O  0.70050683  0.00013995  0.95020768    -0.70600
O631        O  0.75377427  0.07649695  0.95917883    -0.70400
O632        O  0.75389564  0.92373176  0.95912204    -0.70400
O633        O  0.75375609  0.92394721  0.54121270    -0.70400
O634        O  0.75374600  0.07672260  0.54105282    -0.70400
O635        O  0.70041068  0.00044203  0.55006187    -0.70400
O636        O  0.80707522  0.00019716  0.53215526    -0.70500
V637        V  0.75368384  0.00011213  0.96077121     1.35200
V638        V  0.75360262  0.00033057  0.53951463     1.35200
C639        C  0.82145925  0.00014143  0.48793294     0.78900
C640        C  0.67850313  0.00031295  0.51197020     0.78900
C641        C  0.74993381  0.10229258  0.00037798     0.78800
C642        C  0.75009816  0.89794281  0.00030648     0.78800
O643        O  0.80715778  0.00031319  0.71766150    -0.70300
O644        O  0.70050383  0.00044085  0.69974301    -0.70600
O645        O  0.75380477  0.07678084  0.70861415    -0.70400
O646        O  0.75387034  0.92400294  0.70873215    -0.70400
O647        O  0.74628037  0.92411061  0.79113167    -0.70400
O648        O  0.74614383  0.07687942  0.79100201    -0.70400
O649        O  0.69289410  0.00048077  0.78206893    -0.70400
O650        O  0.79955143  0.00047520  0.79998669    -0.70500
V651        V  0.75368857  0.00039314  0.71029168     1.35200
V652        V  0.74636396  0.00049250  0.78944321     1.35200
C653        C  0.82149310  0.00034219  0.76188962     0.78900
C654        C  0.67856127  0.00040516  0.73783798     0.78900
C655        C  0.74996208  0.10261704  0.74979107     0.78800
C656        C  0.75008154  0.89826895  0.74995218     0.78800
O657        O  0.53075423  0.70772717  0.50007659    -0.70300
O658        O  0.53074231  0.55513358  0.00002475    -0.70600
O659        O  0.53078355  0.63148636  0.92757015    -0.70400
O660        O  0.53073286  0.63129263  0.57248859    -0.70400
O661        O  0.96919756  0.63147836  0.57255750    -0.70400
O662        O  0.96924889  0.63169742  0.92761499    -0.70400
O663        O  0.96917373  0.55511575  0.50007313    -0.70400
O664        O  0.96926206  0.70811341  0.00009816    -0.70500
V665        V  0.52957818  0.63152118  0.00003689     1.35200
V666        V  0.97043784  0.63170979  0.00007423     1.35200
C667        C  0.50005364  0.73380791  0.00007454     0.78900
C668        C  0.49996703  0.52929928  0.00003253     0.78900
C669        C  0.50001735  0.63154122  0.90299915     0.78800
C670        C  0.49996887  0.63134557  0.59711373     0.78800
O671        O  0.96924353  0.70779516  0.75004310    -0.70300
O672        O  0.96920422  0.55501414  0.75011559    -0.70600
O673        O  0.96924275  0.63147000  0.82254726    -0.70400
O674        O  0.96921489  0.63135103  0.67762781    -0.70400
O675        O  0.53075025  0.63117240  0.67755533    -0.70400
O676        O  0.53077759  0.63127439  0.82247777    -0.70400
O677        O  0.53073510  0.55483071  0.75003653    -0.70400
O678        O  0.53080468  0.70760551  0.74997885    -0.70500
V679        V  0.97042596  0.63139994  0.75008472     1.35200
V680        V  0.52956695  0.63122020  0.75001564     1.35200
C681        C  0.50003399  0.73348971  0.74998330     0.78900
C682        C  0.49996164  0.52899146  0.75007080     0.78900
C683        C  0.50001390  0.63142077  0.84710574     0.78800
C684        C  0.49997823  0.63127680  0.65300078     0.78800
O685        O  0.78075012  0.70840423  0.50002606    -0.70300
O686        O  0.78074983  0.55544816  0.99994942    -0.70600
O687        O  0.78079404  0.63187001  0.92753191    -0.70400
O688        O  0.78073418  0.63200594  0.57244679    -0.70400
O689        O  0.71919923  0.63218369  0.57251624    -0.70400
O690        O  0.71925903  0.63208468  0.92757764    -0.70400
O691        O  0.71918169  0.55579379  0.50003424    -0.70400
O692        O  0.71927688  0.70842249  0.00009891    -0.70500
V693        V  0.77958933  0.63183735  0.99999717     1.35200
V694        V  0.72044820  0.63203158  0.00003422     1.35200
C695        C  0.75007103  0.73410567  0.00010684     0.78900
C696        C  0.74997406  0.52961525  0.99994571     0.78900
C697        C  0.75002732  0.63202509  0.90296264     0.78800
C698        C  0.74997049  0.63211386  0.59707404     0.78800
O699        O  0.71924615  0.70870834  0.75007028    -0.70300
O700        O  0.71921226  0.55592343  0.75004630    -0.70600
O701        O  0.71925031  0.63229481  0.82251656    -0.70400
O702        O  0.71921807  0.63229239  0.67759564    -0.70400
O703        O  0.78075293  0.63211978  0.67752051    -0.70400
O704        O  0.78078525  0.63210139  0.82244362    -0.70400
O705        O  0.78074300  0.55574423  0.74996231    -0.70400
O706        O  0.78080686  0.70852225  0.75000501    -0.70500
V707        V  0.72043116  0.63230769  0.75005565     1.35200
V708        V  0.77957187  0.63213184  0.74998353     1.35200
C709        C  0.75003563  0.73440645  0.75003795     0.78900
C710        C  0.74997060  0.52990228  0.75001039     0.78900
C711        C  0.75002229  0.63214640  0.84707217     0.78800
C712        C  0.74998052  0.63217559  0.65296551     0.78800
O713        O  0.53067256  0.29156811  0.99999718    -0.70300
O714        O  0.53069442  0.44416202  0.49998549    -0.70600
O715        O  0.53070091  0.36778407  0.57244303    -0.70400
O716        O  0.53069048  0.36792797  0.92753684    -0.70400
O717        O  0.96915563  0.36809858  0.92758053    -0.70400
O718        O  0.96916636  0.36792423  0.57250389    -0.70400
O719        O  0.96917376  0.44452420  0.00003985    -0.70400
O720        O  0.96914209  0.29154125  0.50001715    -0.70500
V721        V  0.52949771  0.36777872  0.49998050     1.35200
V722        V  0.97035677  0.36792383  0.50003879     1.35200
C723        C  0.99992057  0.26567789  0.49997696     0.78900
C724        C  0.99992998  0.47016788  0.50002183     0.78900
C725        C  0.49993551  0.36783466  0.59706740     0.78800
C726        C  0.49992553  0.36796463  0.90296614     0.78800
O727        O  0.96915263  0.29142434  0.75003501    -0.70300
O728        O  0.96917920  0.44420649  0.75005538    -0.70600
O729        O  0.96917149  0.36781842  0.67758257    -0.70400
O730        O  0.96916594  0.36785895  0.82250510    -0.70400
O731        O  0.53070068  0.36769434  0.82245838    -0.70400
O732        O  0.53070606  0.36767452  0.67753004    -0.70400
O733        O  0.53071009  0.44404693  0.75001463    -0.70400
O734        O  0.53071334  0.29127211  0.74997547    -0.70500
V735        V  0.97036719  0.36781716  0.75004365     1.35200
V736        V  0.52950782  0.36766829  0.74999595     1.35200
C737        C  0.49993162  0.26555777  0.74998938     0.78900
C738        C  0.49994825  0.47005715  0.75004809     0.78900
C739        C  0.49993849  0.36777496  0.65296237     0.78800
C740        C  0.49993132  0.36783457  0.84707443     0.78800
O741        O  0.78069440  0.29187819  0.00001637    -0.70300
O742        O  0.78071037  0.44484885  0.49995286    -0.70600
O743        O  0.78071923  0.36847280  0.57238648    -0.70400
O744        O  0.78070387  0.36823757  0.92748763    -0.70400
O745        O  0.71916964  0.36840085  0.92753417    -0.70400
O746        O  0.71918445  0.36860362  0.57244378    -0.70400
O747        O  0.71918370  0.44483658  0.99994971    -0.70400
O748        O  0.71916925  0.29220876  0.49992964    -0.70500
V749        V  0.77951831  0.36846658  0.49992541     1.35200
V750        V  0.72037758  0.36860364  0.49998103     1.35200
C751        C  0.74994912  0.26634306  0.49987626     0.78900
C752        C  0.74994420  0.47085061  0.49999020     0.78900
C753        C  0.74995282  0.36857921  0.59700805     0.78800
C754        C  0.74993857  0.36837081  0.90291559     0.78800
O755        O  0.71916450  0.29233172  0.74991200    -0.70300
O756        O  0.71919071  0.44511206  0.75003646    -0.70600
O757        O  0.71918552  0.36875608  0.67751848    -0.70400
O758        O  0.71917795  0.36865974  0.82244515    -0.70400
O759        O  0.78071225  0.36849685  0.82239889    -0.70400
O760        O  0.78072031  0.36861144  0.67746886    -0.70400
O761        O  0.78072127  0.44495408  0.74999614    -0.70400
O762        O  0.78072576  0.29217897  0.74985578    -0.70500
V763        V  0.72037947  0.36871771  0.74997904     1.35200
V764        V  0.77952007  0.36856932  0.74993306     1.35200
C765        C  0.74994358  0.26646734  0.74985334     0.78900
C766        C  0.74995911  0.47096524  0.75001818     0.78900
C767        C  0.74995347  0.36866046  0.65290061     0.78800
C768        C  0.74994326  0.36851404  0.84701732     0.78800
C769        C  0.74994463  0.16030191  0.74976278    -0.11800
C770        C  0.74994082  0.20878173  0.74978935    -0.13400
C771        C  0.75007912  0.84058076  0.74999645    -0.11800
C772        C  0.75005831  0.79209819  0.75002616    -0.13400
C773        C  0.74990150  0.15998730  0.00036811    -0.11800
C774        C  0.74989642  0.20847344  0.00025723    -0.13400
C775        C  0.75011369  0.84026312  0.00026640    -0.11800
C776        C  0.75010101  0.79178632  0.00019367    -0.13400
C777        C  0.49993027  0.20786743  0.74994041    -0.11800
C778        C  0.49993961  0.15938554  0.74989427    -0.13400
C779        C  0.50005788  0.79117831  0.74991114    -0.11800
C780        C  0.50007845  0.83965983  0.74985815    -0.13400
C781        C  0.86281541  0.00018541  0.76952269    -0.15000
C782        C  0.88723958  0.99981207  0.73019740    -0.30200
H783        H  0.87334180  0.00033786  0.80848974     0.14000
H784        H  0.87671516  0.99966454  0.69122974     0.14600
C785        C  0.61281472  0.99973368  0.76951593    -0.15000
C786        C  0.63724099  0.00021713  0.73019640    -0.30200
H787        H  0.62333864  0.99953763  0.80848425     0.14000
H788        H  0.62671918  0.00040868  0.69122694     0.14600
C789        C  0.49990510  0.15951874  0.49992575    -0.11800
C790        C  0.99991327  0.20799599  0.49994029    -0.13400
C791        C  0.50002082  0.83979289  0.50017842    -0.11800
C792        C  0.50000064  0.79130658  0.50017175    -0.13400
C793        C  0.88720653  0.99997401  0.98060596    -0.15000
C794        C  0.86279038  0.00001727  0.48032732    -0.30200
H795        H  0.87658901  0.99990881  0.55863609     0.14000
H796        H  0.87335412  0.99999581  0.05892221     0.14600
C797        C  0.61278371  0.99992004  0.01988427    -0.15000
C798        C  0.63717646  0.00019869  0.51962871    -0.30200
H799        H  0.62328343  0.99987465  0.05886457     0.14000
H800        H  0.62662893  0.00040619  0.55860377     0.14600
loop_ 
_geom_bond_atom_site_label_1 
_geom_bond_atom_site_label_2 
_geom_bond_distance 
_geom_bond_site_symmetry_2 
_ccdc_geom_bond_type 
O1            V9   1.899       .  S
O1          C211   1.265   1_554  A
O2          V409   1.899   1_455  S
O2          C212   1.263       .  A
O3            V9   1.900   1_545  S
O3          C413   1.263       .  A
O4          V409   1.900       .  S
O4           C14   1.263   1_655  A
O5          V410   1.900       .  S
O5          C614   1.263       .  A
O6           V10   1.900   1_545  S
O6          C213   1.263       .  A
O7           V10   1.900   1_455  S
O7           C12   1.263       .  A
O8          V410   1.899       .  S
O8           C11   1.265       .  A
V9          O402   1.899       .  S
V9          O404   1.900       .  S
V9          V610   2.090   1_554  T
V10         O405   1.900       .  S
V10         O408   1.899       .  S
V10         V609   2.090   1_655  T
C11         O201   1.264       .  A
C11         C193   1.474       .  S
C12         O202   1.265       .  A
C12         C197   1.474       .  S
C13         O403   1.263       .  A
C13         O206   1.262   1_654  A
C13         C189   1.434       .  S
C14         O605   1.263   1_554  A
C14         C191   1.434       .  S
O15          V23   1.899       .  S
O15          C25   1.265       .  A
O16         V423   1.900   1_455  S
O16          C26   1.263       .  A
O17          V23   1.900   1_545  S
O17         C427   1.263       .  A
O18         V423   1.900       .  S
O18          C28   1.263   1_655  A
O19         V424   1.900       .  S
O19         C428   1.263       .  A
O20          V24   1.900   1_545  S
O20          C27   1.263   1_455  A
O21          V24   1.899       .  S
O21          C26   1.265       .  A
O22         V424   1.900       .  S
O22          C25   1.263       .  A
V23         O416   1.900       .  S
V23         O418   1.900       .  S
V23         V424   2.090       .  T
V24         O419   1.900       .  S
V24         O422   1.900   1_455  S
V24         V423   2.090   1_455  T
C25         C182   1.474       .  S
C26         C185   1.474       .  S
C27         O417   1.263       .  A
C27         C178   1.434       .  S
C28         O419   1.263       .  A
C28         C180   1.434       .  S
O29          V37   1.900       .  S
O29         C239   1.264       .  A
O30          V37   1.899       .  S
O30         C240   1.265       .  A
O31          V37   1.900       .  S
O31          C41   1.263       .  A
O32          V37   1.899   1_565  S
O32          C42   1.263       .  A
O33          V38   1.900   1_565  S
O33         C242   1.263       .  A
O34          V38   1.900       .  S
O34         C241   1.263       .  A
O35          V38   1.900       .  S
O35          C40   1.265   1_554  A
O36          V38   1.900       .  S
O36          C39   1.264       .  A
V37         V238   2.090       .  T
V38         V237   2.090   1_554  T
C39         O229   1.265   1_554  A
C39         C194   1.474       .  S
C40         O230   1.263       .  A
C40         C198   1.474       .  S
C41         O234   1.263       .  A
C41         C173   1.434       .  S
C42         O233   1.263       .  A
C42         C175   1.434       .  S
O43          V51   1.899       .  S
O43          C53   1.265       .  A
O44          V51   1.900       .  S
O44          C54   1.263       .  A
O45          V51   1.900       .  S
O45          C55   1.263       .  A
O46          V51   1.900   1_565  S
O46          C56   1.263       .  A
O47          V52   1.900   1_565  S
O47          C56   1.263       .  A
O48          V52   1.900       .  S
O48          C55   1.263       .  A
O49          V52   1.899       .  S
O49          C54   1.265       .  A
O50          V52   1.900       .  S
O50          C53   1.263       .  A
V51          V52   2.090       .  T
C53         C181   1.474       .  S
C54         C186   1.474       .  S
C55         C169   1.434       .  S
C56         C171   1.434       .  S
O57         V265   1.900       .  S
O57         C267   1.263       .  A
O58          V65   1.900       .  S
O58          C68   1.264   1_455  A
O59          V65   1.899       .  S
O59          C69   1.264   1_455  A
O60         V265   1.899       .  S
O60          C70   1.264   1_455  A
O61         V266   1.899       .  S
O61         C470   1.264       .  A
O62          V66   1.899       .  S
O62         C469   1.264       .  A
O63         V266   1.900       .  S
O63         C668   1.264       .  A
O64          V66   1.900       .  S
O64         C467   1.263       .  A
V65         O257   1.900       .  S
V65         O260   1.899       .  S
V65         V466   2.090   1_455  T
V66         O261   1.899       .  S
V66         O263   1.900       .  S
V66         V465   2.090       .  T
C67         O257   1.263   1_655  A
C67         O464   1.263       .  A
C67         C392   1.434   1_655  S
C68         O663   1.264       .  A
C68         C724   1.465       .  S
C69         O462   1.264       .  A
C69          C83   1.464       .  S
C70         O461   1.264       .  A
C70          C84   1.465       .  S
O71          V79   1.900       .  S
O71         C481   1.263       .  A
O72          V79   1.900       .  S
O72         C482   1.264       .  A
O73          V79   1.899       .  S
O73         C483   1.264       .  A
O74          V79   1.899       .  S
O74         C484   1.264       .  A
O75          V80   1.899       .  S
O75          C84   1.264   1_455  A
O76          V80   1.899       .  S
O76          C83   1.264   1_455  A
O77          V80   1.900       .  S
O77          C82   1.264   1_455  A
O78          V80   1.900       .  S
O78          C81   1.263   1_455  A
V79         V480   2.090       .  T
V80         V479   2.090   1_455  T
C81         O471   1.263       .  A
C81         C179   1.434   1_655  S
C82         O472   1.264       .  A
C82         C138   1.465       .  S
C83         O473   1.264       .  A
C84         O474   1.264       .  A
O85         V293   1.900   1_554  S
O85         C295   1.262       .  A
O86          V93   1.900       .  S
O86          C96   1.264       .  A
O87          V93   1.899       .  S
O87          C97   1.264       .  A
O88         V293   1.899   1_554  S
O88          C98   1.264       .  A
O89         V294   1.899       .  S
O89          C98   1.264       .  A
O90          V94   1.899       .  S
O90          C97   1.264       .  A
O91         V294   1.900   1_556  S
O91         C296   1.264       .  A
O92          V94   1.900       .  S
O92          C95   1.263       .  A
V93         O285   1.900       .  S
V93         O288   1.899       .  S
V93          V94   2.090       .  T
V94         O289   1.899       .  S
V94         O291   1.900       .  S
C95         O285   1.263       .  A
C95         C176   1.434       .  S
C96         O291   1.264       .  A
C96         C352   1.465       .  S
C97         C111   1.464       .  S
C98         C112   1.464       .  S
O99         V107   1.900       .  S
O99         C109   1.263       .  A
O100        V107   1.900       .  S
O100        C110   1.264       .  A
O101        V107   1.899       .  S
O101        C111   1.264       .  A
O102        V107   1.899       .  S
O102        C112   1.264       .  A
O103        V108   1.899       .  S
O103        C112   1.264       .  A
O104        V108   1.899       .  S
O104        C111   1.264       .  A
O105        V108   1.899       .  S
O105        C110   1.264       .  A
O106        V108   1.900       .  S
O106        C109   1.263       .  A
V107        V108   2.090       .  T
C109        C172   1.434       .  S
C110        C166   1.465       .  S
O113        V321   1.900       .  S
O113        C723   1.263   1_455  A
O114        V121   1.900   1_554  S
O114        C524   1.264   1_455  A
O115        V121   1.899   1_554  S
O115        C125   1.264   1_455  A
O116        V321   1.899       .  S
O116        C126   1.264   1_455  A
O117        V322   1.899       .  S
O117        C526   1.264       .  A
O118        V122   1.899       .  S
O118        C525   1.264       .  A
O119        V322   1.900       .  S
O119        C324   1.264       .  A
O120        V122   1.900       .  S
O120        C123   1.263       .  A
V121        O313   1.900       .  S
V121        O316   1.899       .  S
V121        V522   2.090   1_456  T
V122        O317   1.899   1_554  S
V122        O319   1.900       .  S
V122        V521   2.090   1_554  T
C123        O713   1.263   1_554  A
C123        C190   1.434       .  S
C124        O514   1.264       .  A
C124        O319   1.264       .  A
C124        C668   1.465       .  S
C125        O518   1.264       .  A
C125        C139   1.464       .  S
C126        O517   1.264       .  A
C126        C140   1.464       .  S
O127        V135   1.900       .  S
O127        C537   1.263       .  A
O128        V135   1.900       .  S
O128        C538   1.264       .  A
O129        V135   1.899       .  S
O129        C539   1.264       .  A
O130        V135   1.899       .  S
O130        C540   1.264       .  A
O131        V136   1.899       .  S
O131        C140   1.264   1_455  A
O132        V136   1.899       .  S
O132        C139   1.264   1_455  A
O133        V136   1.900       .  S
O133        C138   1.264   1_455  A
O134        V136   1.900       .  S
O134        C137   1.263   1_455  A
V135        V536   2.090       .  T
V136        V535   2.090   1_455  T
C137        O527   1.263       .  A
C137        C177   1.434       .  S
C138        O528   1.264       .  A
C139        O529   1.264       .  A
C140        O530   1.264       .  A
O141        V349   1.900       .  S
O141        C351   1.263       .  A
O142        V149   1.900       .  S
O142        C152   1.264       .  A
O143        V149   1.899   1_554  S
O143        C153   1.264       .  A
O144        V349   1.899       .  S
O144        C154   1.264       .  A
O145        V350   1.899       .  S
O145        C154   1.264       .  A
O146        V150   1.899   1_554  S
O146        C153   1.264       .  A
O147        V350   1.900       .  S
O147        C352   1.264       .  A
O148        V150   1.900   1_554  S
O148        C151   1.263       .  A
V149        O341   1.900   1_556  S
V149        O344   1.899       .  S
V149        V150   2.090       .  T
V150        O345   1.899       .  S
V150        O347   1.900       .  S
C151        O341   1.263       .  A
C151        C374   1.434       .  S
C152        O347   1.264       .  A
C152        C296   1.465       .  S
C153        C167   1.464       .  S
C154        C168   1.464       .  S
O155        V163   1.900       .  S
O155        C165   1.263       .  A
O156        V163   1.900       .  S
O156        C166   1.264       .  A
O157        V163   1.899       .  S
O157        C167   1.264       .  A
O158        V163   1.899       .  S
O158        C168   1.264       .  A
O159        V164   1.899       .  S
O159        C168   1.264       .  A
O160        V164   1.899       .  S
O160        C167   1.264       .  A
O161        V164   1.900       .  S
O161        C166   1.264       .  A
O162        V164   1.900       .  S
O162        C165   1.263       .  A
V163        V164   2.090       .  T
C165        C170   1.434       .  S
C169        C170   1.205       .  T
C171        C172   1.205       .  T
C173        C174   1.205       .  T
C174        C351   1.434       .  S
C175        C176   1.205       .  T
C177        C178   1.205       .  T
C179        C180   1.205       .  T
C181        C182   1.344   1_545  D
C181        H183   1.087       .  S
C182        H184   1.087       .  S
C185        C186   1.344   1_565  D
C185        H187   1.087       .  S
C186        H188   1.087       .  S
C189        C590   1.205       .  T
C190        C589   1.205       .  T
C191        C192   1.205       .  T
C192        C267   1.434       .  S
C193        C394   1.344   1_565  D
C193        H395   1.087       .  S
C194        C393   1.344   1_544  D
C194        H396   1.087   1_545  S
H195        C393   1.087       .  S
H196        C394   1.087       .  S
C197        C398   1.344   1_565  D
C197        H199   1.087       .  S
C198        C397   1.343   1_546  D
C198        H200   1.087       .  S
O201        V209   1.900       .  S
O202        V609   1.899       .  S
O203        V209   1.899   1_545  S
O203        C613   1.263       .  A
O204        V609   1.900       .  S
O204        C214   1.263       .  A
O205        V610   1.900       .  S
O205        C414   1.263   1_556  A
O206        V210   1.899   1_545  S
O207        V210   1.900       .  S
O207        C212   1.265   1_556  A
O208        V610   1.900       .  S
O208        C211   1.264       .  A
V209        O602   1.899       .  S
V209        O604   1.900       .  S
V209        V410   2.090       .  T
V210        O605   1.900       .  S
V210        O608   1.900   1_455  S
V210        V409   2.090   1_456  T
C211        C393   1.474       .  S
C212        C397   1.474       .  S
C213        O603   1.263   1_655  A
C213        C389   1.434       .  S
C214        O405   1.263   1_455  A
C214        C391   1.434       .  S
O215        V223   1.899       .  S
O215        C225   1.265       .  A
O216        V623   1.900   1_455  S
O216        C226   1.263       .  A
O217        V223   1.900   1_545  S
O217        C627   1.263       .  A
O218        V623   1.900       .  S
O218        C228   1.263   1_655  A
O219        V624   1.900       .  S
O219        C628   1.263       .  A
O220        V224   1.900   1_545  S
O220        C227   1.263   1_455  A
O221        V224   1.899       .  S
O221        C226   1.265       .  A
O222        V624   1.900       .  S
O222        C225   1.263       .  A
V223        O616   1.900       .  S
V223        O618   1.900       .  S
V223        V624   2.090       .  T
V224        O619   1.900       .  S
V224        O622   1.900   1_455  S
V224        V623   2.090   1_455  T
C225        C382   1.474       .  S
C226        C385   1.474       .  S
C227        O617   1.263       .  A
C227        C378   1.434       .  S
C228        O619   1.263       .  A
C228        C380   1.434       .  S
O229        V237   1.899       .  S
O230        V237   1.899       .  S
O231        V237   1.900       .  S
O231        C241   1.263   1_556  A
O232        V237   1.899   1_565  S
O232        C242   1.263   1_556  A
O233        V238   1.900   1_565  S
O234        V238   1.900       .  S
O235        V238   1.900       .  S
O235        C240   1.263       .  A
O236        V238   1.899       .  S
O236        C239   1.265       .  A
C239        C394   1.474       .  S
C240        C398   1.474       .  S
C241        C373   1.434       .  S
C242        C375   1.434       .  S
O243        V251   1.899       .  S
O243        C253   1.265       .  A
O244        V251   1.900       .  S
O244        C254   1.263       .  A
O245        V251   1.900       .  S
O245        C255   1.263       .  A
O246        V251   1.900   1_565  S
O246        C256   1.263       .  A
O247        V252   1.900   1_565  S
O247        C256   1.263       .  A
O248        V252   1.900       .  S
O248        C255   1.263       .  A
O249        V252   1.899       .  S
O249        C254   1.265       .  A
O250        V252   1.900       .  S
O250        C253   1.263       .  A
V251        V252   2.090       .  T
C253        C381   1.474       .  S
C254        C386   1.474       .  S
C255        C369   1.434       .  S
C256        C371   1.434       .  S
O258        V265   1.900       .  S
O258        C268   1.264   1_455  A
O259        V265   1.899   1_556  S
O259        C269   1.264       .  A
O260        C270   1.264   1_455  A
O261        C670   1.264       .  A
O262        V266   1.899   1_556  S
O262        C669   1.264       .  A
O263        C468   1.264       .  A
O264        V266   1.900       .  S
O264        C667   1.263       .  A
V265        V666   2.090   1_455  T
V266        V665   2.090       .  T
C267        O664   1.263   1_455  A
C268        O463   1.264       .  A
C268        C524   1.465       .  S
C269        O662   1.264   1_455  A
C269        C283   1.464       .  S
C270        O661   1.264       .  A
C270        C284   1.464       .  S
O271        V279   1.900       .  S
O271        C681   1.263       .  A
O272        V279   1.900       .  S
O272        C682   1.264       .  A
O273        V279   1.899       .  S
O273        C683   1.264       .  A
O274        V279   1.899       .  S
O274        C684   1.264       .  A
O275        V280   1.899       .  S
O275        C284   1.264   1_455  A
O276        V280   1.899       .  S
O276        C283   1.264       .  A
O277        V280   1.900       .  S
O277        C282   1.264   1_455  A
O278        V280   1.900       .  S
O278        C281   1.263       .  A
V279        V680   2.090       .  T
V280        V679   2.090   1_455  T
C281        O671   1.263   1_455  A
C281        C379   1.434       .  S
C282        O672   1.264       .  A
C282        C338   1.465       .  S
C283        O673   1.264   1_455  A
C284        O674   1.264       .  A
O286        V293   1.900       .  S
O286        C296   1.264       .  A
O287        V293   1.899       .  S
O287        C297   1.264       .  A
O288        C298   1.264       .  A
O289        C298   1.264       .  A
O290        V294   1.899   1_556  S
O290        C297   1.264       .  A
O292        V294   1.900       .  S
O292        C295   1.263       .  A
V293        V294   2.090   1_556  T
C295        C376   1.434       .  S
C297        C311   1.464       .  S
C298        C312   1.464       .  S
O299        V307   1.900       .  S
O299        C309   1.263       .  A
O300        V307   1.900       .  S
O300        C310   1.264       .  A
O301        V307   1.899       .  S
O301        C311   1.264       .  A
O302        V307   1.899       .  S
O302        C312   1.264       .  A
O303        V308   1.899       .  S
O303        C312   1.264       .  A
O304        V308   1.899       .  S
O304        C311   1.264       .  A
O305        V308   1.900       .  S
O305        C310   1.264       .  A
O306        V308   1.900       .  S
O306        C309   1.263       .  A
V307        V308   2.090       .  T
C309        C372   1.434       .  S
C310        C366   1.465       .  S
O313        C523   1.263   1_456  A
O314        V321   1.900       .  S
O314        C724   1.264   1_455  A
O315        V321   1.899       .  S
O315        C325   1.264   1_455  A
O316        C326   1.264   1_455  A
O317        C726   1.264       .  A
O318        V322   1.899       .  S
O318        C725   1.264       .  A
O320        V322   1.900       .  S
O320        C323   1.263       .  A
V321        V722   2.090   1_455  T
V322        V721   2.090       .  T
C323        O513   1.263       .  A
C323        C390   1.434       .  S
C324        O714   1.264       .  A
C324        C468   1.465       .  S
C325        O718   1.264       .  A
C325        C339   1.464       .  S
C326        O717   1.264       .  A
C326        C340   1.464       .  S
O327        V335   1.900       .  S
O327        C737   1.263       .  A
O328        V335   1.900       .  S
O328        C738   1.264       .  A
O329        V335   1.899       .  S
O329        C739   1.264       .  A
O330        V335   1.899       .  S
O330        C740   1.264       .  A
O331        V336   1.899       .  S
O331        C340   1.264   1_455  A
O332        V336   1.899       .  S
O332        C339   1.264   1_455  A
O333        V336   1.899       .  S
O333        C338   1.264   1_455  A
O334        V336   1.900       .  S
O334        C337   1.263   1_455  A
V335        V736   2.090       .  T
V336        V735   2.090   1_455  T
C337        O727   1.263       .  A
C337        C377   1.434       .  S
C338        O728   1.264       .  A
C339        O729   1.264       .  A
C340        O730   1.264       .  A
O342        V349   1.900       .  S
O342        C352   1.264       .  A
O343        V349   1.899       .  S
O343        C353   1.264       .  A
O344        C354   1.264       .  A
O345        C354   1.264       .  A
O346        V350   1.899       .  S
O346        C353   1.264       .  A
O348        V350   1.900       .  S
O348        C351   1.263       .  A
V349        V350   2.090       .  T
C353        C367   1.464       .  S
C354        C368   1.465       .  S
O355        V363   1.900       .  S
O355        C365   1.263       .  A
O356        V363   1.900       .  S
O356        C366   1.264       .  A
O357        V363   1.899       .  S
O357        C367   1.264       .  A
O358        V363   1.899       .  S
O358        C368   1.264       .  A
O359        V364   1.899       .  S
O359        C368   1.264       .  A
O360        V364   1.899       .  S
O360        C367   1.264       .  A
O361        V364   1.900       .  S
O361        C366   1.264       .  A
O362        V364   1.900       .  S
O362        C365   1.263       .  A
V363        V364   2.090       .  T
C365        C370   1.434       .  S
C369        C370   1.205       .  T
C371        C372   1.205       .  T
C373        C374   1.205       .  T
C375        C376   1.205       .  T
C377        C378   1.205       .  T
C379        C380   1.205       .  T
C381        C382   1.344   1_545  D
C381        H383   1.087       .  S
C382        H384   1.087       .  S
C385        C386   1.344   1_565  D
C385        H387   1.087       .  S
C386        H388   1.087       .  S
C389        C790   1.205       .  T
C390        C789   1.205       .  T
C391        C392   1.205       .  T
C397        H399   1.087       .  S
C398        H400   1.087       .  S
O401        V409   1.899       .  S
O401        C611   1.265   1_554  A
O402        C612   1.263       .  A
O403        V409   1.900   1_545  S
O404        C414   1.263       .  A
O406        V410   1.900   1_545  S
O406        C613   1.263       .  A
O407        V410   1.900       .  S
O407        C412   1.263       .  A
O408        C411   1.265       .  A
C411        O601   1.264       .  A
C411        C593   1.474       .  S
C412        O602   1.265       .  A
C412        C597   1.474       .  S
C413        O606   1.262   1_554  A
C413        C589   1.434       .  S
C414        C591   1.434       .  S
O415        V423   1.899       .  S
O415        C425   1.265       .  A
O416        C426   1.263       .  A
O417        V423   1.900   1_545  S
O418        C428   1.263       .  A
O420        V424   1.900   1_545  S
O420        C427   1.263       .  A
O421        V424   1.899       .  S
O421        C426   1.265       .  A
O422        C425   1.263       .  A
C425        C582   1.474       .  S
C426        C585   1.474       .  S
C427        C578   1.434       .  S
C428        C580   1.434       .  S
O429        V437   1.900       .  S
O429        C639   1.264       .  A
O430        V437   1.899       .  S
O430        C640   1.265       .  A
O431        V437   1.900       .  S
O431        C441   1.263       .  A
O432        V437   1.899   1_565  S
O432        C442   1.263       .  A
O433        V438   1.900   1_565  S
O433        C642   1.263       .  A
O434        V438   1.900       .  S
O434        C641   1.263       .  A
O435        V438   1.900       .  S
O435        C440   1.265   1_554  A
O436        V438   1.900       .  S
O436        C439   1.264       .  A
V437        V638   2.090       .  T
V438        V637   2.090   1_554  T
C439        O629   1.265   1_554  A
C439        C594   1.474       .  S
C440        O630   1.263       .  A
C440        C598   1.474       .  S
C441        O634   1.263       .  A
C441        C573   1.434       .  S
C442        O633   1.263       .  A
C442        C575   1.434       .  S
O443        V451   1.899       .  S
O443        C453   1.265       .  A
O444        V451   1.900       .  S
O444        C454   1.263       .  A
O445        V451   1.900       .  S
O445        C455   1.263       .  A
O446        V451   1.900   1_565  S
O446        C456   1.263       .  A
O447        V452   1.900   1_565  S
O447        C456   1.263       .  A
O448        V452   1.900       .  S
O448        C455   1.263       .  A
O449        V452   1.899       .  S
O449        C454   1.265       .  A
O450        V452   1.900       .  S
O450        C453   1.263       .  A
V451        V452   2.090       .  T
C453        C581   1.474       .  S
C454        C586   1.474       .  S
C455        C569   1.434       .  S
C456        C571   1.434       .  S
O457        V665   1.900       .  S
O457        C667   1.263       .  A
O458        V465   1.900       .  S
O458        C468   1.264       .  A
O459        V465   1.899       .  S
O459        C469   1.264       .  A
O460        V665   1.899       .  S
O460        C470   1.264       .  A
O461        V666   1.899       .  S
O462        V466   1.899       .  S
O463        V666   1.900       .  S
O464        V466   1.900       .  S
V465        O657   1.900       .  S
V465        O660   1.899       .  S
V466        O661   1.899       .  S
V466        O663   1.900       .  S
C467        O657   1.263       .  A
C467        C792   1.434       .  S
C469        C483   1.464       .  S
C470        C484   1.465       .  S
O471        V479   1.900       .  S
O472        V479   1.900       .  S
O473        V479   1.899       .  S
O474        V479   1.899       .  S
O475        V480   1.899       .  S
O475        C484   1.264       .  A
O476        V480   1.899       .  S
O476        C483   1.264       .  A
O477        V480   1.900       .  S
O477        C482   1.264       .  A
O478        V480   1.900       .  S
O478        C481   1.263       .  A
C481        C579   1.434       .  S
C482        C538   1.465       .  S
O485        V693   1.900   1_554  S
O485        C695   1.262       .  A
O486        V493   1.900       .  S
O486        C496   1.264       .  A
O487        V493   1.899       .  S
O487        C497   1.264       .  A
O488        V693   1.899   1_554  S
O488        C498   1.264       .  A
O489        V694   1.899       .  S
O489        C498   1.264       .  A
O490        V494   1.899       .  S
O490        C497   1.264       .  A
O491        V694   1.900   1_556  S
O491        C696   1.264       .  A
O492        V494   1.900       .  S
O492        C495   1.263       .  A
V493        O685   1.900       .  S
V493        O688   1.899       .  S
V493        V494   2.090       .  T
V494        O689   1.899       .  S
V494        O691   1.900       .  S
C495        O685   1.263       .  A
C495        C576   1.434       .  S
C496        O691   1.264       .  A
C496        C752   1.465       .  S
C497        C511   1.464       .  S
C498        C512   1.464       .  S
O499        V507   1.900       .  S
O499        C509   1.263       .  A
O500        V507   1.900       .  S
O500        C510   1.264       .  A
O501        V507   1.899       .  S
O501        C511   1.264       .  A
O502        V507   1.899       .  S
O502        C512   1.264       .  A
O503        V508   1.899       .  S
O503        C512   1.264       .  A
O504        V508   1.899       .  S
O504        C511   1.264       .  A
O505        V508   1.899       .  S
O505        C510   1.264       .  A
O506        V508   1.900       .  S
O506        C509   1.263       .  A
V507        V508   2.090       .  T
C509        C572   1.434       .  S
C510        C566   1.465       .  S
O513        V721   1.900       .  S
O514        V521   1.900   1_554  S
O515        V521   1.899   1_554  S
O515        C525   1.264       .  A
O516        V721   1.899       .  S
O516        C526   1.264       .  A
O517        V722   1.899       .  S
O518        V522   1.899       .  S
O519        V722   1.900       .  S
O519        C724   1.264       .  A
O520        V522   1.900       .  S
O520        C523   1.263       .  A
V521        O713   1.900       .  S
V521        O716   1.899       .  S
V522        O717   1.899   1_554  S
V522        O719   1.900       .  S
C523        C590   1.434       .  S
C524        O719   1.264       .  A
C525        C539   1.464       .  S
C526        C540   1.464       .  S
O527        V535   1.900       .  S
O528        V535   1.900       .  S
O529        V535   1.899       .  S
O530        V535   1.899       .  S
O531        V536   1.899       .  S
O531        C540   1.264       .  A
O532        V536   1.899       .  S
O532        C539   1.264       .  A
O533        V536   1.900       .  S
O533        C538   1.264       .  A
O534        V536   1.900       .  S
O534        C537   1.263       .  A
C537        C577   1.434       .  S
O541        V749   1.900       .  S
O541        C751   1.263       .  A
O542        V549   1.900       .  S
O542        C552   1.264       .  A
O543        V549   1.899   1_554  S
O543        C553   1.264       .  A
O544        V749   1.899       .  S
O544        C554   1.264       .  A
O545        V750   1.899       .  S
O545        C554   1.264       .  A
O546        V550   1.899       .  S
O546        C553   1.264       .  A
O547        V750   1.900       .  S
O547        C752   1.264       .  A
O548        V550   1.900       .  S
O548        C551   1.263       .  A
V549        O741   1.900   1_556  S
V549        O744   1.899       .  S
V549        V550   2.090   1_556  T
V550        O745   1.899   1_554  S
V550        O747   1.900   1_554  S
C551        O741   1.263       .  A
C551        C774   1.434       .  S
C552        O747   1.264       .  A
C552        C696   1.465       .  S
C553        C567   1.464       .  S
C554        C568   1.464       .  S
O555        V563   1.900       .  S
O555        C565   1.263       .  A
O556        V563   1.900       .  S
O556        C566   1.264       .  A
O557        V563   1.899       .  S
O557        C567   1.264       .  A
O558        V563   1.899       .  S
O558        C568   1.264       .  A
O559        V564   1.899       .  S
O559        C568   1.264       .  A
O560        V564   1.899       .  S
O560        C567   1.264       .  A
O561        V564   1.900       .  S
O561        C566   1.264       .  A
O562        V564   1.900       .  S
O562        C565   1.263       .  A
V563        V564   2.090       .  T
C565        C570   1.434       .  S
C569        C570   1.205       .  T
C571        C572   1.205       .  T
C573        C574   1.205       .  T
C574        C751   1.434       .  S
C575        C576   1.205       .  T
C577        C578   1.205       .  T
C579        C580   1.205       .  T
C581        C582   1.344   1_545  D
C581        H583   1.087       .  S
C582        H584   1.087       .  S
C585        C586   1.344   1_565  D
C585        H587   1.087       .  S
C586        H588   1.087       .  S
C591        C592   1.205       .  T
C592        C667   1.434       .  S
C593        C794   1.344   1_565  D
C593        H795   1.087       .  S
C594        C793   1.344   1_544  D
C594        H796   1.087   1_545  S
H595        C793   1.087       .  S
H596        C794   1.087       .  S
C597        C798   1.344   1_565  D
C597        H599   1.087       .  S
C598        C797   1.343   1_546  D
C598        H600   1.087       .  S
O601        V609   1.900   1_655  S
O603        V609   1.899   1_545  S
O604        C614   1.263       .  A
O606        V610   1.899   1_545  S
O607        V610   1.900       .  S
O607        C612   1.265   1_556  A
O608        C611   1.264       .  A
C611        C793   1.474       .  S
C612        C797   1.474       .  S
C613        C789   1.434       .  S
C614        C791   1.434       .  S
O615        V623   1.899       .  S
O615        C625   1.265       .  A
O616        C626   1.263       .  A
O617        V623   1.900   1_545  S
O618        C628   1.263       .  A
O620        V624   1.900   1_545  S
O620        C627   1.263       .  A
O621        V624   1.899       .  S
O621        C626   1.265       .  A
O622        C625   1.263       .  A
C625        C782   1.474       .  S
C626        C785   1.474       .  S
C627        C778   1.434       .  S
C628        C780   1.434       .  S
O629        V637   1.899       .  S
O630        V637   1.899       .  S
O631        V637   1.900       .  S
O631        C641   1.263   1_556  A
O632        V637   1.899   1_565  S
O632        C642   1.263   1_556  A
O633        V638   1.900   1_565  S
O634        V638   1.900       .  S
O635        V638   1.900       .  S
O635        C640   1.263       .  A
O636        V638   1.899       .  S
O636        C639   1.265       .  A
C639        C794   1.474       .  S
C640        C798   1.474       .  S
C641        C773   1.434       .  S
C642        C775   1.434       .  S
O643        V651   1.899       .  S
O643        C653   1.265       .  A
O644        V651   1.900       .  S
O644        C654   1.263       .  A
O645        V651   1.900       .  S
O645        C655   1.263       .  A
O646        V651   1.900   1_565  S
O646        C656   1.263       .  A
O647        V652   1.900   1_565  S
O647        C656   1.263       .  A
O648        V652   1.900       .  S
O648        C655   1.263       .  A
O649        V652   1.899       .  S
O649        C654   1.265       .  A
O650        V652   1.900       .  S
O650        C653   1.263       .  A
V651        V652   2.090       .  T
C653        C781   1.474       .  S
C654        C786   1.474       .  S
C655        C769   1.434       .  S
C656        C771   1.434       .  S
O658        V665   1.900       .  S
O658        C668   1.264       .  A
O659        V665   1.899   1_556  S
O659        C669   1.264       .  A
O660        C670   1.264       .  A
O662        V666   1.899   1_556  S
O664        V666   1.900       .  S
C669        C683   1.464       .  S
C670        C684   1.464       .  S
O671        V679   1.900       .  S
O672        V679   1.900       .  S
O673        V679   1.899       .  S
O674        V679   1.899       .  S
O675        V680   1.899       .  S
O675        C684   1.264       .  A
O676        V680   1.899       .  S
O676        C683   1.264       .  A
O677        V680   1.900       .  S
O677        C682   1.264       .  A
O678        V680   1.900       .  S
O678        C681   1.263       .  A
C681        C779   1.434       .  S
C682        C738   1.465       .  S
O686        V693   1.900       .  S
O686        C696   1.264       .  A
O687        V693   1.899       .  S
O687        C697   1.264       .  A
O688        C698   1.264       .  A
O689        C698   1.264       .  A
O690        V694   1.899   1_556  S
O690        C697   1.264       .  A
O692        V694   1.900       .  S
O692        C695   1.263       .  A
V693        V694   2.090   1_556  T
C695        C776   1.434       .  S
C697        C711   1.464       .  S
C698        C712   1.464       .  S
O699        V707   1.900       .  S
O699        C709   1.263       .  A
O700        V707   1.900       .  S
O700        C710   1.264       .  A
O701        V707   1.899       .  S
O701        C711   1.264       .  A
O702        V707   1.899       .  S
O702        C712   1.264       .  A
O703        V708   1.899       .  S
O703        C712   1.264       .  A
O704        V708   1.899       .  S
O704        C711   1.264       .  A
O705        V708   1.900       .  S
O705        C710   1.264       .  A
O706        V708   1.900       .  S
O706        C709   1.263       .  A
V707        V708   2.090       .  T
C709        C772   1.434       .  S
C710        C766   1.465       .  S
O714        V721   1.900       .  S
O715        V721   1.899       .  S
O715        C725   1.264       .  A
O716        C726   1.264       .  A
O718        V722   1.899       .  S
O720        V722   1.900       .  S
O720        C723   1.263       .  A
C723        C790   1.434       .  S
C725        C739   1.464       .  S
C726        C740   1.464       .  S
O727        V735   1.900       .  S
O728        V735   1.900       .  S
O729        V735   1.899       .  S
O730        V735   1.899       .  S
O731        V736   1.899       .  S
O731        C740   1.264       .  A
O732        V736   1.899       .  S
O732        C739   1.264       .  A
O733        V736   1.899       .  S
O733        C738   1.264       .  A
O734        V736   1.900       .  S
O734        C737   1.263       .  A
C737        C777   1.434       .  S
O742        V749   1.900       .  S
O742        C752   1.264       .  A
O743        V749   1.899       .  S
O743        C753   1.264       .  A
O744        C754   1.264       .  A
O745        C754   1.264       .  A
O746        V750   1.899       .  S
O746        C753   1.264       .  A
O748        V750   1.900       .  S
O748        C751   1.263       .  A
V749        V750   2.090       .  T
C753        C767   1.464       .  S
C754        C768   1.465       .  S
O755        V763   1.900       .  S
O755        C765   1.263       .  A
O756        V763   1.900       .  S
O756        C766   1.264       .  A
O757        V763   1.899       .  S
O757        C767   1.264       .  A
O758        V763   1.899       .  S
O758        C768   1.264       .  A
O759        V764   1.899       .  S
O759        C768   1.264       .  A
O760        V764   1.899       .  S
O760        C767   1.264       .  A
O761        V764   1.900       .  S
O761        C766   1.264       .  A
O762        V764   1.900       .  S
O762        C765   1.263       .  A
V763        V764   2.090       .  T
C765        C770   1.434       .  S
C769        C770   1.205       .  T
C771        C772   1.205       .  T
C773        C774   1.205       .  T
C775        C776   1.205       .  T
C777        C778   1.205       .  T
C779        C780   1.205       .  T
C781        C782   1.344   1_545  D
C781        H783   1.087       .  S
C782        H784   1.087       .  S
C785        C786   1.344   1_565  D
C785        H787   1.087       .  S
C786        H788   1.087       .  S
C791        C792   1.205       .  T
C797        H799   1.087       .  S
C798        H800   1.087       .  S
