geometry optimzed in LAMMPS
_audit_creation_date              2020-11-30 
_audit_creation_method            'lammps2cif' 
_symmetry_space_group_name_H-M    'P1' 
_symmetry_Int_Tables_number       1 
_symmetry_cell_setting            triclinic 
loop_ 
_symmetry_equiv_pos_as_xyz 
  x,y,z 
_cell_length_a                    39.07566221 
_cell_length_b                    40.72782801663351 
_cell_length_c                    27.476183672996306 
_cell_angle_alpha                 88.51153161176018 
_cell_angle_beta                  88.03441271382194 
_cell_angle_gamma                 120.54966468211242 
loop_ 
_atom_site_label 
_atom_site_type_symbol 
_atom_site_fract_x 
_atom_site_fract_y 
_atom_site_fract_z 
_atom_site_charge 
Zr1        Zr  0.39666180  0.22160325  0.29329315     2.17500
O2          O  0.42926656  0.24584042  0.36905102    -0.52400
O3          O  0.44354453  0.28013469  0.24466428    -0.75600
O4          O  0.44433813  0.19831308  0.31113840    -0.82400
O5          O  0.32225389  0.23853297  0.33643633    -0.84100
O6          O  0.42312716  0.14051754  0.27910423    -0.79700
O7          O  0.38894464  0.27148464  0.32861434    -0.91400
O8          O  0.41755396  0.28642788  0.17454002    -0.77300
O9          O  0.40659211  0.20480553  0.21427862    -0.86800
O10         O  0.36027113  0.23819779  0.23864640    -0.86500
O11         O  0.36484309  0.15380806  0.30385043    -0.73300
O12         O  0.32714943  0.18801830  0.32239349    -0.85400
Zr13       Zr  0.27519219  0.11513536  0.19550578     2.26400
Zr14       Zr  0.37643921  0.13709333  0.22458604     2.06300
Zr15       Zr  0.29226528  0.20332602  0.26418896     2.10000
Zr16       Zr  0.36946324  0.22075496  0.16018995     1.78800
O17         O  0.24360813  0.21023536  0.31380214    -0.94200
O18         O  0.42764994  0.23298783  0.10967873    -0.42000
O19         O  0.30043913  0.18321440  0.18587394    -0.78600
O20         O  0.34288744  0.15352383  0.16591111    -0.97300
O21         O  0.30829153  0.09931098  0.25397401    -0.90600
O22         O  0.26509584  0.13696117  0.27198227    -0.93500
C23         C  0.44328133  0.29974162  0.20695531     1.00300
C24         C  0.35581792  0.26971108  0.33817366     1.13200
C25         C  0.44573242  0.16722142  0.30563254     1.04000
O26         O  0.44108983  0.16068399  0.18224573    -0.95600
O27         O  0.36210402  0.10309734  0.15310549    -0.91400
O28         O  0.29506185  0.06956814  0.16347282    -0.84500
C29         C  0.32885234  0.07334396  0.14822921     1.10600
O30         O  0.32354624  0.12105728  0.40941179    -0.97600
Zr31       Zr  0.29648830  0.12003823  0.33038276     1.88900
O32         O  0.21850064  0.06385136  0.24370251    -0.74300
O33         O  0.36570734  0.07334810  0.24193474    -0.53500
O34         O  0.29452460  0.06062604  0.35203074    -0.97300
O35         O  0.26295326  0.13467635  0.39523417    -0.55400
O36         O  0.22641658  0.07254368  0.32508374    -0.74800
C37         C  0.20557668  0.05607825  0.28877225     0.97600
O38         O  0.25127857  0.10000560  0.11361396    -0.63600
O39         O  0.29782688  0.25868453  0.22018936    -0.58400
O40         O  0.21405096  0.11465370  0.18559376    -0.95100
O41         O  0.22653440  0.16527233  0.23082755    -0.93500
O42         O  0.34266962  0.25793681  0.12486902    -0.93900
O43         O  0.35591031  0.20926054  0.07446482    -0.92600
C44         C  0.20374565  0.13657197  0.20540174     1.16400
H45         H  0.36808455  0.26477869  0.23939306     0.32400
H46         H  0.34524537  0.14725150  0.13289379     0.43200
H47         H  0.23777863  0.12697660  0.28278715     0.36700
H48         H  0.37601345  0.14660806  0.32985305     0.33200
H49         H  0.43419564  0.25570709  0.08850830     0.25000
H50         H  0.39156668  0.07534295  0.23352075     0.30900
H51         H  0.27575097  0.04182357  0.32984310     0.36900
H52         H  0.36515257  0.27876108  0.10477796     0.31300
H53         H  0.27119848  0.24939979  0.20741325     0.30200
H54         H  0.23225405  0.22100210  0.29112228     0.31900
H55         H  0.24147378  0.10955693  0.40904783     0.30800
H56         H  0.32845886  0.18708298  0.07480874     0.34800
H57         H  0.25260384  0.12350062  0.10032787     0.27600
H58         H  0.45815612  0.25863133  0.36032828     0.31800
H59         H  0.30134569  0.10027205  0.42989949     0.34700
H60         H  0.29981135  0.27609572  0.24581993     0.27300
H61         H  0.27259048  0.09888911  0.09456170     0.40100
H62         H  0.43893031  0.17087673  0.15010799     0.30200
H63         H  0.44962951  0.24238826  0.13215132     0.37800
H64         H  0.24888253  0.14562770  0.37803586     0.29700
H65         H  0.36225352  0.06947290  0.27790116     0.29700
H66         H  0.42314878  0.22287542  0.38935950     0.30000
C67         C  0.99912172  0.12006296  0.35327345     0.79200
N68         N  0.46872743  0.12526450  0.34008639    -0.79100
C69         C  0.47537875  0.16104128  0.32894646     0.81600
N70         N  0.01202432  0.19112845  0.33136013    -0.79100
C71         C  0.04279635  0.18691463  0.34343636     0.81700
N72         N  0.03672503  0.15130049  0.35441199    -0.80800
Zr73       Zr  0.17845612  0.27597005  0.29693339     2.17500
O74         O  0.18738091  0.24678993  0.37040748    -0.52400
O75         O  0.16116369  0.21979644  0.24919968    -0.75600
O76         O  0.11394658  0.22221379  0.32843602    -0.82400
O77         O  0.28662178  0.36159909  0.29406435    -0.84100
O78         O  0.07962264  0.25245444  0.33622547    -0.79700
O79         O  0.24913756  0.29858945  0.31644071    -0.91400
O80         O  0.12446736  0.21812849  0.18628267    -0.77300
O81         O  0.12823296  0.26324755  0.24119311    -0.86800
O82         O  0.21120782  0.29704094  0.21785332    -0.86500
O83         O  0.14536568  0.30862470  0.32715224    -0.73300
O84         O  0.21464371  0.34149156  0.29600949    -0.85400
Zr85       Zr  0.17363346  0.38631374  0.19517883     2.26400
Zr86       Zr  0.09630481  0.29644206  0.26700421     2.06300
Zr87       Zr  0.25315533  0.36451496  0.22486989     2.10000
Zr88       Zr  0.16016087  0.28541877  0.16269573     1.78800
O89         O  0.31926983  0.42028080  0.23156480    -0.94200
O90         O  0.10300416  0.25725912  0.11187983    -0.42000
O91         O  0.20512518  0.35268745  0.16644826    -0.78600
O92         O  0.12762451  0.31934664  0.18693442    -0.97300
O93         O  0.14028119  0.36160901  0.27239408    -0.90600
O94         O  0.22370642  0.40043320  0.25176992    -0.93500
C95         C  0.13703338  0.20216858  0.21527858     1.00300
C96         C  0.28200234  0.33158910  0.31564630     1.13200
C97         C  0.08153281  0.22212338  0.33763534     1.04000
O98         O  0.04504022  0.24465233  0.22284295    -0.95600
O99         O  0.07274494  0.33831196  0.23685826    -0.91400
O100        O  0.11387072  0.38718343  0.18294775    -0.84500
C101        C  0.08066438  0.36655192  0.20679751     1.10600
O102        O  0.23237360  0.38389363  0.39485046    -0.97600
Zr103      Zr  0.18856061  0.37597802  0.32922981     1.88900
O104        O  0.16326916  0.42961189  0.24499279    -0.74300
O105        O  0.03849940  0.28999553  0.31278109    -0.53500
O106        O  0.15098934  0.35842181  0.40781534    -0.98200
O107        O  0.23452514  0.44377179  0.34064016    -0.55400
O108        O  0.14688429  0.40445030  0.32260253    -0.74800
C109        C  0.14813492  0.42704479  0.28836427     0.97600
O110        O  0.17004558  0.40631257  0.11195014    -0.63600
O111        O  0.29002127  0.33931063  0.18198701    -0.58400
O112        O  0.23851215  0.43783109  0.16521614    -0.95100
O113        O  0.27694015  0.41115186  0.15825593    -0.93500
O114        O  0.20336419  0.26554380  0.12410764    -0.93900
O115        O  0.17519040  0.30483794  0.07634764    -0.92600
C116        C  0.27103221  0.43895025  0.15242048     1.16400
H117        H  0.22547571  0.28409095  0.20996026     0.32400
H118        H  0.10811684  0.31599007  0.16386903     0.43200
H119        H  0.24323601  0.42726023  0.25229821     0.36700
H120        H  0.13612117  0.30052435  0.36063271     0.33200
H121        H  0.10384478  0.23590634  0.09657249     0.25000
H122        H  0.01873187  0.26231949  0.31465831     0.30900
H123        H  0.15422212  0.38263344  0.41936208     0.36900
H124        H  0.18503141  0.23950797  0.11351717     0.31300
H125        H  0.30559266  0.35853452  0.15519270     0.30200
H126        H  0.33799807  0.41347328  0.21623036     0.31900
H127        H  0.22403779  0.44919476  0.37079062     0.30800
H128        H  0.17281121  0.32785037  0.07294454     0.34800
H129        H  0.19221956  0.40644444  0.09322330     0.27600
H130        H  0.17504989  0.21932336  0.36403400     0.31800
H131        H  0.22815876  0.39928162  0.41905838     0.34700
H132        H  0.31017343  0.34148499  0.20463333     0.27300
H133        H  0.14589648  0.38439053  0.09971962     0.40100
H134        H  0.04656787  0.22189767  0.23270697     0.30200
H135        H  0.07952360  0.24464019  0.13517243     0.37800
H136        H  0.22952767  0.45779627  0.31455390     0.29700
H137        H  0.04693827  0.29611833  0.34652585     0.29700
H138        H  0.16950067  0.24785250  0.39591505     0.30000
C139        C  0.37345087  0.01465326  0.11922800     0.79200
N140        N  0.34154641  0.47985113  0.12663707    -0.79100
C141        C  0.30474593  0.47546377  0.13509814     0.81600
N142        N  0.30011294  0.00581051  0.13809130    -0.79100
C143        C  0.33195579  0.04108323  0.13145072     0.81700
N144        N  0.36865642  0.04548236  0.12159741    -0.80800
C145        C  0.10739558  0.48282270  0.34611275     0.79200
N146        N  0.13793840  0.01836537  0.33122871    -0.79100
C147        C  0.16718155  0.02174093  0.29909876     0.81600
N148        N  0.16592502  0.49078088  0.28261140    -0.79100
C149        C  0.13839998  0.45596792  0.29997471     0.81700
N150        N  0.10896649  0.45135451  0.33281062    -0.80800
C151        C  0.10378573  0.10818633  0.15974694     0.79200
N152        N  0.13660063  0.10565364  0.16961192    -0.79100
C153        C  0.16429847  0.13130103  0.19884345     0.81600
N154        N  0.15930813  0.15872391  0.21713075    -0.79100
C155        C  0.12968875  0.16399456  0.20502720     0.81700
N156        N  0.10174631  0.13908980  0.17505739    -0.80800
C157        C  0.38614650  0.37166852  0.35510988     0.79200
N158        N  0.35100610  0.36951875  0.34451585    -0.79100
C159        C  0.31809225  0.33495891  0.33566737     0.81600
N160        N  0.32055052  0.30328415  0.33734588    -0.79100
C161        C  0.35487648  0.30468507  0.34632685     0.81700
N162        N  0.38773685  0.33878547  0.35538826    -0.80800
C163        C  0.01456128  0.39856916  0.15527516     0.79200
N164        N  0.04905201  0.40011821  0.16764084    -0.79100
C165        C  0.04711324  0.37172076  0.19735497     0.81600
N166        N  0.01165159  0.34206485  0.21266454    -0.79100
C167        C  0.47781085  0.33826360  0.19821551     0.81700
N168        N  0.47881403  0.36652958  0.16902079    -0.80800
Zr169      Zr  0.48803219  0.49770917  0.09682591     2.17500
O170        O  0.46898263  0.48800755  0.18375456    -0.52400
O171        O  0.04282831  0.05324893  0.13610592    -0.75600
O172        O  0.49843729  0.44683648  0.13406023    -0.82400
O173        O  0.43391061  0.04757156  0.07269481    -0.84100
O174        O  0.03321174  0.43220094  0.07837509    -0.79700
O175        O  0.42365798  0.99590456  0.11611127    -0.91400
O176        O  0.08977796  0.09344542  0.07845089    -0.77300
O177        O  0.04869907  0.01531311  0.04993558    -0.86800
O178        O  0.00456747  0.05371318  0.04637731    -0.86500
O179        O  0.47420787  0.44462164  0.04663083    -0.73300
O180        O  0.43415196  0.48057822  0.04371129    -0.85400
Zr181      Zr  0.99629055  0.99962285  0.39619925     2.26400
Zr182      Zr  0.03507139  0.46306142  0.99973717     2.06300
Zr183      Zr  0.45098690  0.03564878  0.49271593     2.10000
Zr184      Zr  0.06416197  0.07035693  0.00009274     1.78800
O185        O  0.38011674  0.00180030  0.47880005    -0.94200
O186        O  0.13202969  0.08233827  0.99636807    -0.42000
O187        O  0.01070762  0.05173052  0.44736755    -0.78600
O188        O  0.05132079  0.01889567  0.44972646    -0.97300
O189        O  0.48125937  0.44526901  0.44773361    -0.90600
O190        O  0.43595777  0.48321610  0.44233634    -0.93500
C191        C  0.07666125  0.08332501  0.12277672     1.00300
C192        C  0.41286333  0.02002640  0.10340674     1.13200
C193        C  0.01615019  0.42833629  0.12080454     1.04000
O194        O  0.10345617  0.48385557  0.01819286    -0.95600
O195        O  0.07199723  0.46563324  0.42366627    -0.91400
O196        O  0.05226784  0.49162977  0.36413414    -0.84500
C197        C  0.07457232  0.47895589  0.37973636     1.10600
O198        O  0.37236460  0.40084132  0.06296662    -0.97600
Zr199      Zr  0.42138938  0.42877034  0.49408207     1.88900
O200        O  0.43660918  0.44013819  0.36462463    -0.74300
O201        O  0.01476892  0.39749268  0.48269581    -0.53500
O202        O  0.40416351  0.36367797  0.51699665    -0.98200
O203        O  0.35661964  0.41315535  0.46492331    -0.55400
O204        O  0.42135803  0.39539129  0.42426094    -0.74800
C205        C  0.41704708  0.40472043  0.38156990     0.97600
O206        O  0.00332325  0.01006379  0.30774915    -0.63600
O207        O  0.44124979  0.09028169  0.49042954    -0.58400
O208        O  0.00125195  0.06120706  0.36527618    -0.95100
O209        O  0.46987015  0.07844337  0.42151395    -0.93500
O210        O  0.06738066  0.13165353  0.00198905    -0.93900
O211        O  0.10422384  0.11502935  0.43304820    -0.92600
C212        C  0.48897293  0.08371332  0.38055389     1.16400
H213        H  0.00835147  0.07458500  0.06592710     0.32400
H214        H  0.07679964  0.02929476  0.43218109     0.43200
H215        H  0.41514518  0.47864408  0.42078243     0.36700
H216        H  0.46427190  0.42061136  0.06473094     0.33200
H217        H  0.14879240  0.10941549  0.00431298     0.25000
H218        H  0.03527983  0.39317791  0.49663951     0.30900
H219        H  0.37942683  0.34707364  0.50039329     0.36900
H220        H  0.09314582  0.14904263  0.01606458     0.31300
H221        H  0.41488858  0.08117595  0.50715008     0.30200
H222        H  0.36738801  0.98444254  0.50809531     0.31900
H223        H  0.34015919  0.38498128  0.46877096     0.30800
H224        H  0.08809917  0.10484457  0.40424144     0.34800
H225        H  0.03153555  0.03000620  0.30049830     0.27600
H226        H  0.49274372  0.49158279  0.20011337     0.31800
H227        H  0.34844503  0.37860545  0.05093383     0.34700
H228        H  0.46326822  0.10940837  0.01282862     0.27300
H229        H  0.00107484  0.98653163  0.29512197     0.40100
H230        H  0.10774266  0.49742838  0.04880402     0.30200
H231        H  0.13313637  0.06777060  0.02507386     0.37800
H232        H  0.36049404  0.41830189  0.42918280     0.29700
H233        H  0.48922183  0.38174438  0.00682960     0.29700
H234        H  0.44923332  0.46040710  0.18884541     0.30000
Zr235      Zr  0.39658684  0.22171138  0.79358668     2.17500
O236        O  0.42831346  0.24518839  0.87001991    -0.52400
O237        O  0.44350077  0.28031411  0.74492461    -0.75600
O238        O  0.44440521  0.19866810  0.81180588    -0.82400
O239        O  0.32223647  0.23828267  0.83695810    -0.84100
O240        O  0.42341093  0.14103996  0.77940184    -0.79700
O241        O  0.38892199  0.27142199  0.82935266    -0.91400
O242        O  0.41754348  0.28667478  0.67478697    -0.77300
O243        O  0.40668093  0.20508864  0.71453213    -0.86800
O244        O  0.36028541  0.23839520  0.73888837    -0.86500
O245        O  0.36481612  0.15393001  0.80384430    -0.73300
O246        O  0.32700538  0.18801179  0.82242745    -0.85400
Zr247      Zr  0.27537820  0.11542266  0.69517776     2.26400
Zr248      Zr  0.37665476  0.13738566  0.72463093     2.06300
Zr249      Zr  0.29225037  0.20351599  0.76429392     2.10000
Zr250      Zr  0.36958307  0.22105070  0.66035767     1.78800
O251        O  0.24379678  0.21054929  0.81418812    -0.94200
O252        O  0.42791285  0.23368674  0.60983544    -0.42000
O253        O  0.30051638  0.18352929  0.68583342    -0.78600
O254        O  0.34314218  0.15385702  0.66592101    -0.97300
O255        O  0.30839680  0.09950383  0.75362015    -0.90600
O256        O  0.26512788  0.13711575  0.77168804    -0.93500
C257        C  0.44331900  0.29992004  0.70713970     1.00300
C258        C  0.35574371  0.26950950  0.83896667     1.13200
C259        C  0.44587632  0.16762669  0.80619708     1.04000
O260        O  0.44106191  0.16050813  0.68187643    -0.95600
O261        O  0.36274446  0.10357773  0.65300977    -0.91400
O262        O  0.29565376  0.07018418  0.66280655    -0.84500
C263        C  0.32948357  0.07391432  0.64780454     1.10600
O264        O  0.32351872  0.12020558  0.90879162    -0.97600
Zr265      Zr  0.29640163  0.12002635  0.83007437     1.88900
O266        O  0.21886344  0.06388645  0.74342709    -0.74300
O267        O  0.36562910  0.07360253  0.74251225    -0.53500
O268        O  0.29392902  0.06022747  0.85069657    -0.97300
O269        O  0.26297886  0.13448417  0.89526594    -0.55400
O270        O  0.22630434  0.07279970  0.82482414    -0.74800
C271        C  0.20571405  0.05616857  0.78842943     0.97600
O272        O  0.25120089  0.09982016  0.61343680    -0.63600
O273        O  0.29785216  0.25911688  0.72088883    -0.58400
O274        O  0.21424051  0.11499777  0.68532313    -0.95100
O275        O  0.22649358  0.16542000  0.73087966    -0.93500
O276        O  0.34277917  0.25827383  0.62517811    -0.93900
O277        O  0.35662682  0.20934634  0.57451631    -0.92600
C278        C  0.20379138  0.13674654  0.70533652     1.16400
H279        H  0.36811337  0.26497444  0.73974557     0.32400
H280        H  0.34561841  0.14762931  0.63291591     0.43200
H281        H  0.23778706  0.12707434  0.78241660     0.36700
H282        H  0.37594217  0.14669729  0.82985632     0.33200
H283        H  0.43495604  0.25699396  0.58964282     0.25000
H284        H  0.39130970  0.07537412  0.73361604     0.30900
H285        H  0.27452761  0.04150239  0.82895764     0.36900
H286        H  0.36473942  0.27811258  0.60343953     0.31300
H287        H  0.27153438  0.24968320  0.70712531     0.30200
H288        H  0.23260513  0.22156841  0.79164530     0.31900
H289        H  0.24238224  0.10933038  0.91006208     0.30800
H290        H  0.32926369  0.18704311  0.57468619     0.34800
H291        H  0.25199369  0.12306124  0.60015220     0.27600
H292        H  0.45727674  0.25887398  0.86148290     0.31800
H293        H  0.30116545  0.09962796  0.92932871     0.34700
H294        H  0.29884163  0.27598470  0.74675431     0.27300
H295        H  0.27267467  0.09908414  0.59422874     0.40100
H296        H  0.43907905  0.17125272  0.65006014     0.30200
H297        H  0.44965351  0.24219960  0.63255509     0.37800
H298        H  0.24778986  0.14427240  0.87820716     0.29700
H299        H  0.36268506  0.07007035  0.77852239     0.29700
H300        H  0.42285936  0.22212876  0.88963021     0.30000
C301        C  0.99917008  0.11968456  0.85258143     0.79200
N302        N  0.46879947  0.12556425  0.84066051    -0.79100
C303        C  0.47552271  0.16138323  0.82955945     0.81600
N304        N  0.01189857  0.19071340  0.83089648    -0.79100
C305        C  0.04273958  0.18655590  0.84284596     0.81700
N306        N  0.03674693  0.15095736  0.85369050    -0.80800
Zr307      Zr  0.17850669  0.27585218  0.79679287     2.17500
O308        O  0.18747652  0.24655038  0.87010883    -0.52400
O309        O  0.16112733  0.21960164  0.74933911    -0.75600
O310        O  0.11393410  0.22200630  0.82811278    -0.82400
O311        O  0.28719551  0.36149569  0.79318036    -0.84100
O312        O  0.07951864  0.25213803  0.83609123    -0.79700
O313        O  0.24926145  0.29866514  0.81650703    -0.91400
O314        O  0.12457353  0.21799353  0.68626808    -0.77300
O315        O  0.12824577  0.26305065  0.74101079    -0.86800
O316        O  0.21118471  0.29689951  0.71766298    -0.86500
O317        O  0.14525443  0.30833611  0.82708300    -0.73300
O318        O  0.21467303  0.34135412  0.79580936    -0.85400
Zr319      Zr  0.17353406  0.38609230  0.69519757     2.26400
Zr320      Zr  0.09620240  0.29611603  0.76687170     2.06300
Zr321      Zr  0.25313734  0.36437981  0.72459550     2.10000
Zr322      Zr  0.16012872  0.28529997  0.66251186     1.78800
O323        O  0.31896990  0.42063157  0.73089911    -0.94200
O324        O  0.10315565  0.25740177  0.61136336    -0.42000
O325        O  0.20504559  0.35256071  0.66624263    -0.78600
O326        O  0.12759162  0.31917164  0.68690196    -0.97300
O327        O  0.14015348  0.36125909  0.77236414    -0.90600
O328        O  0.22364988  0.40023176  0.75172100    -0.93500
C329        C  0.13695120  0.20197347  0.71547291     1.00300
C330        C  0.28228634  0.33157693  0.81538438     1.13200
C331        C  0.08146299  0.22182640  0.83729314     1.04000
O332        O  0.04541437  0.24423013  0.72234407    -0.95600
O333        O  0.07270154  0.33803001  0.73664261    -0.91400
O334        O  0.11393533  0.38719874  0.68314776    -0.84500
C335        C  0.08066159  0.36638079  0.70675389     1.10600
O336        O  0.23211472  0.38322865  0.89482108    -0.97600
Zr337      Zr  0.18845541  0.37568788  0.82916214     1.88900
O338        O  0.16312884  0.42932022  0.74510449    -0.74300
O339        O  0.03792861  0.28930218  0.81185184    -0.53500
O340        O  0.15116677  0.35832354  0.90793690    -0.98200
O341        O  0.23438043  0.44347194  0.84058083    -0.55400
O342        O  0.14650286  0.40390936  0.82257178    -0.74800
C343        C  0.14782803  0.42660852  0.78842045     0.97600
O344        O  0.16912011  0.40579130  0.61214245    -0.63600
O345        O  0.28998006  0.33907189  0.68189456    -0.58400
O346        O  0.23841714  0.43739501  0.66497985    -0.95100
O347        O  0.27645456  0.41038027  0.65727304    -0.93500
O348        O  0.20459724  0.26706625  0.62357141    -0.93900
O349        O  0.17334542  0.30365984  0.57578343    -0.92600
C350        C  0.27078268  0.43834953  0.65181136     1.16400
H351        H  0.22543735  0.28393041  0.70981483     0.32400
H352        H  0.10810194  0.31586626  0.66383684     0.43200
H353        H  0.24316408  0.42706722  0.75221268     0.36700
H354        H  0.13600357  0.30022227  0.86056568     0.33200
H355        H  0.10269772  0.23481746  0.59805878     0.25000
H356        H  0.01848546  0.26154824  0.81410802     0.30900
H357        H  0.15547637  0.38274621  0.92015073     0.36900
H358        H  0.18739558  0.23965678  0.61753074     0.31300
H359        H  0.30499930  0.35789286  0.65452104     0.30200
H360        H  0.33771401  0.41450600  0.71406140     0.31900
H361        H  0.22374638  0.44891580  0.87058667     0.30800
H362        H  0.17197195  0.32723078  0.57255927     0.34800
H363        H  0.19185297  0.40703354  0.59334602     0.27600
H364        H  0.17538105  0.21914685  0.86349141     0.31800
H365        H  0.22870761  0.39939592  0.91853600     0.34700
H366        H  0.31059503  0.34191281  0.70420056     0.27300
H367        H  0.14553158  0.38335570  0.59976652     0.40100
H368        H  0.04599746  0.22126222  0.73371178     0.30200
H369        H  0.07956669  0.24657695  0.63444479     0.37800
H370        H  0.22951733  0.45748548  0.81434591     0.29700
H371        H  0.04626096  0.29584963  0.84555326     0.29700
H372        H  0.16939801  0.24731642  0.89559200     0.30000
C373        C  0.37404407  0.01513224  0.61920243     0.79200
N374        N  0.34134907  0.47923941  0.62608538    -0.79100
C375        C  0.30456905  0.47487843  0.63469200     0.81600
N376        N  0.30070575  0.00633121  0.63806146    -0.79100
C377        C  0.33254504  0.04160542  0.63107211     0.81700
N378        N  0.36924334  0.04597531  0.62122293    -0.80800
C379        C  0.10712496  0.48249459  0.84619029     0.79200
N380        N  0.13810912  0.01836541  0.83082957    -0.79100
C381        C  0.16734831  0.02178476  0.79866637     0.81600
N382        N  0.16570230  0.49036406  0.78280054    -0.79100
C383        C  0.13810001  0.45555360  0.80009344     0.81700
N384        N  0.10863347  0.45097870  0.83288022    -0.80800
C385        C  0.10371213  0.10808877  0.65985021     0.79200
N386        N  0.13663841  0.10569714  0.66953199    -0.79100
C387        C  0.16421941  0.13123817  0.69896613     0.81600
N388        N  0.15901298  0.15842641  0.71759729    -0.79100
C389        C  0.12940183  0.16370051  0.70547318     0.81700
N390        N  0.10153634  0.13887208  0.67536703    -0.80800
C391        C  0.38622683  0.37150415  0.85577672     0.79200
N392        N  0.35121140  0.36946107  0.84470833    -0.79100
C393        C  0.31823789  0.33490295  0.83588253     0.81600
N394        N  0.32053798  0.30314147  0.83798556    -0.79100
C395        C  0.35475666  0.30444236  0.84731883     0.81700
N396        N  0.38764321  0.33852311  0.85642519    -0.80800
C397        C  0.01465819  0.39848418  0.65518646     0.79200
N398        N  0.04910895  0.40000491  0.66766518    -0.79100
C399        C  0.04709768  0.37145632  0.69712742     0.81600
N400        N  0.01161778  0.34167199  0.71206202    -0.79100
C401        C  0.47798722  0.33831380  0.69811544     0.81700
N402        N  0.47904541  0.36652308  0.66874373    -0.80800
Zr403      Zr  0.48832318  0.49774751  0.59645929     2.17500
O404        O  0.46980168  0.48904370  0.68348903    -0.52400
O405        O  0.04246984  0.05346684  0.63622456    -0.75600
O406        O  0.49914094  0.44702078  0.63356972    -0.82400
O407        O  0.43478075  0.04800144  0.57304191    -0.84100
O408        O  0.03354713  0.43234815  0.57841728    -0.79700
O409        O  0.42402525  0.99610470  0.61619252    -0.91400
O410        O  0.08995711  0.09296360  0.57861467    -0.77300
O411        O  0.04841324  0.01521834  0.55017736    -0.86800
O412        O  0.00431628  0.05364640  0.54679941    -0.86500
O413        O  0.47434418  0.44455104  0.54636391    -0.73300
O414        O  0.43440730  0.48068554  0.54342518    -0.85400
Zr415      Zr  0.99655772  0.99954625  0.89600987     2.26400
Zr416      Zr  0.03545187  0.46320203  0.49968330     2.06300
Zr417      Zr  0.45094463  0.03561835  0.99264091     2.10000
Zr418      Zr  0.06382132  0.07027035  0.50038823     1.78800
O419        O  0.38024852  0.00330052  0.97789577    -0.94200
O420        O  0.13185556  0.08273959  0.49519365    -0.42000
O421        O  0.01101277  0.05177615  0.94703200    -0.78600
O422        O  0.05165565  0.01891557  0.94952407    -0.97300
O423        O  0.48139146  0.44533798  0.94808199    -0.90600
O424        O  0.43605239  0.48335531  0.94251173    -0.93500
C425        C  0.07658138  0.08320850  0.62290195     1.00300
C426        C  0.41346654  0.02040513  0.60357575     1.13200
C427        C  0.01637081  0.42837375  0.62081155     1.04000
O428        O  0.10385491  0.48354659  0.51754965    -0.95600
O429        O  0.07130547  0.46504534  0.92357391    -0.91400
O430        O  0.05227373  0.49181466  0.86420466    -0.84500
C431        C  0.07424146  0.47871623  0.87973755     1.10600
O432        O  0.37388732  0.40065531  0.56436812    -0.97600
Zr433      Zr  0.42135524  0.42881919  0.99411369     1.88900
O434        O  0.43665233  0.44017162  0.86503006    -0.74300
O435        O  0.01450739  0.39722621  0.98361704    -0.53500
O436        O  0.40429136  0.36399931  0.01832621    -0.98200
O437        O  0.35686242  0.41283893  0.96354908    -0.55400
O438        O  0.42211435  0.39556715  0.92449457    -0.74800
C439        C  0.41733989  0.40472869  0.88194888     0.97600
O440        O  0.00349313  0.00959900  0.80749802    -0.63600
O441        O  0.44373006  0.09170691  0.99030710    -0.58400
O442        O  0.00151586  0.06097888  0.86469113    -0.95100
O443        O  0.46962714  0.07829420  0.92140184    -0.93500
O444        O  0.06596905  0.13102686  0.50328985    -0.93900
O445        O  0.10496032  0.11433189  0.93227875    -0.92600
C446        C  0.48902425  0.08376184  0.88064198     1.16400
H447        H  0.00812078  0.07449737  0.56640045     0.32400
H448        H  0.07710808  0.02929163  0.93190467     0.43200
H449        H  0.41538335  0.47894157  0.92080569     0.36700
H450        H  0.46438478  0.42055237  0.56450550     0.33200
H451        H  0.14851337  0.10963458  0.50393493     0.25000
H452        H  0.03502935  0.39303204  0.99777946     0.30900
H453        H  0.37966987  0.34718934  0.00164539     0.36900
H454        H  0.09226482  0.14891705  0.51578426     0.31300
H455        H  0.41735779  0.08332981  0.00651539     0.30200
H456        H  0.36686747  0.98749817  0.00818488     0.31900
H457        H  0.34101901  0.38459021  0.96575203     0.30800
H458        H  0.08679654  0.10754663  0.90520010     0.34800
H459        H  0.03173916  0.02939681  0.80011011     0.27600
H460        H  0.49335334  0.49193609  0.69970533     0.31800
H461        H  0.34976187  0.37831376  0.55289797     0.34700
H462        H  0.46071868  0.10857995  0.51253086     0.27300
H463        H  0.00103925  0.98593368  0.79505470     0.40100
H464        H  0.10756017  0.49489347  0.54977712     0.30200
H465        H  0.13319508  0.06769170  0.52316839     0.37800
H466        H  0.36129259  0.41923944  0.92806779     0.29700
H467        H  0.49080555  0.38156178  0.50623617     0.29700
H468        H  0.44942757  0.46164410  0.68882509     0.30000
Zr469      Zr  0.39658453  0.72167058  0.29384484     2.17500
O470        O  0.42855794  0.74491050  0.37024110    -0.52400
O471        O  0.44352960  0.78024569  0.24510661    -0.75600
O472        O  0.44426884  0.69846519  0.31186250    -0.82400
O473        O  0.32226390  0.73852733  0.33692561    -0.84100
O474        O  0.42335608  0.64095097  0.27913629    -0.79700
O475        O  0.38895673  0.77154015  0.32926668    -0.91400
O476        O  0.41741113  0.78663351  0.17512164    -0.77300
O477        O  0.40656768  0.70494779  0.21479817    -0.86800
O478        O  0.36032318  0.73837638  0.23916047    -0.86500
O479        O  0.36471517  0.65387783  0.30404076    -0.73300
O480        O  0.32699846  0.68802666  0.32270176    -0.85400
Zr481      Zr  0.27532039  0.61543211  0.19531373     2.26400
Zr482      Zr  0.37638451  0.63722201  0.22479349     2.06300
Zr483      Zr  0.29228246  0.70352931  0.26446019     2.10000
Zr484      Zr  0.36958021  0.72104001  0.16063170     1.78800
O485        O  0.24328563  0.70986111  0.31415379    -0.94200
O486        O  0.42811639  0.73430982  0.11006813    -0.42000
O487        O  0.30051203  0.68352687  0.18604023    -0.78600
O488        O  0.34306943  0.65385025  0.16600125    -0.97300
O489        O  0.30817491  0.59939919  0.25385075    -0.90600
O490        O  0.26518427  0.63717648  0.27180958    -0.93500
C491        C  0.44326077  0.79985688  0.20737467     1.00300
C492        C  0.35580648  0.76973232  0.33874784     1.13200
C493        C  0.44574888  0.66745068  0.30606536     1.04000
O494        O  0.44069792  0.65937256  0.18231526    -0.95600
O495        O  0.36241683  0.60358535  0.15300391    -0.91400
O496        O  0.29534584  0.57006994  0.16284703    -0.84500
C497        C  0.32919173  0.57387747  0.14779314     1.10600
O498        O  0.32277323  0.62032364  0.40953066    -0.97600
Zr499      Zr  0.29630321  0.62001807  0.33030394     1.88900
O500        O  0.21882370  0.56387961  0.24343446    -0.74300
O501        O  0.36430505  0.57315181  0.24332882    -0.53500
O502        O  0.29464818  0.56053878  0.35041619    -0.97300
O503        O  0.26199450  0.63361389  0.39536078    -0.55400
O504        O  0.22624080  0.57282636  0.32482085    -0.74800
C505        C  0.20565780  0.55622049  0.28842164     0.97600
O506        O  0.25134362  0.60041410  0.11342948    -0.63600
O507        O  0.29867161  0.75930378  0.22059778    -0.58400
O508        O  0.21406150  0.61479762  0.18581775    -0.95100
O509        O  0.22658328  0.66557937  0.23079543    -0.93500
O510        O  0.34243827  0.75796704  0.12548739    -0.93900
O511        O  0.35701623  0.70943807  0.07472361    -0.92600
C512        C  0.20377109  0.63677516  0.20548380     1.16400
H513        H  0.36815283  0.76495763  0.24002512     0.32400
H514        H  0.34550891  0.64770110  0.13293783     0.43200
H515        H  0.23784447  0.62717536  0.28247902     0.36700
H516        H  0.37584461  0.64657912  0.32998663     0.33200
H517        H  0.43549400  0.75808926  0.09076386     0.25000
H518        H  0.38977105  0.57447566  0.23447521     0.30900
H519        H  0.27450847  0.54151362  0.32962031     0.36900
H520        H  0.36410812  0.77747391  0.10312117     0.31300
H521        H  0.27240546  0.75009995  0.20680518     0.30200
H522        H  0.23445159  0.72368023  0.29263467     0.31900
H523        H  0.24082941  0.60831112  0.40910016     0.30800
H524        H  0.32874983  0.68891224  0.07462890     0.34800
H525        H  0.25212770  0.62373195  0.10046890     0.27600
H526        H  0.45749249  0.75904662  0.36145601     0.31800
H527        H  0.30047931  0.59924536  0.42957158     0.34700
H528        H  0.29993377  0.77639036  0.24630581     0.27300
H529        H  0.27290161  0.59986453  0.09416477     0.40100
H530        H  0.43969629  0.67182494  0.15138800     0.30200
H531        H  0.44965929  0.74210060  0.13294979     0.37800
H532        H  0.24753616  0.64419556  0.37826559     0.29700
H533        H  0.36144532  0.56987828  0.27936093     0.29700
H534        H  0.42362711  0.72187544  0.38948236     0.30000
C535        C  0.99915155  0.61982343  0.35284349     0.79200
N536        N  0.46869099  0.62534490  0.34027345    -0.79100
C537        C  0.47535348  0.66116623  0.32935844     0.81600
N538        N  0.01198245  0.69093270  0.33143592    -0.79100
C539        C  0.04277353  0.68672050  0.34341611     0.81700
N540        N  0.03674013  0.65108027  0.35413964    -0.80800
Zr541      Zr  0.17839229  0.77592117  0.29710947     2.17500
O542        O  0.18699931  0.74658213  0.37068341    -0.52400
O543        O  0.16106248  0.71981447  0.24917315    -0.75600
O544        O  0.11394888  0.72213545  0.32866592    -0.82400
O545        O  0.28662708  0.86167811  0.29423278    -0.84100
O546        O  0.07950390  0.75228231  0.33628329    -0.79700
O547        O  0.24917030  0.79866302  0.31661891    -0.91400
O548        O  0.12437920  0.71815863  0.18622662    -0.77300
O549        O  0.12819628  0.76327125  0.24129154    -0.86800
O550        O  0.21114086  0.79708287  0.21803497    -0.86500
O551        O  0.14523933  0.80852340  0.32735697    -0.73300
O552        O  0.21453009  0.84142067  0.29636853    -0.85400
Zr553      Zr  0.17335864  0.88623317  0.19560891     2.26400
Zr554      Zr  0.09622313  0.79641148  0.26719248     2.06300
Zr555      Zr  0.25296064  0.86454256  0.22519088     2.10000
Zr556      Zr  0.16013431  0.78549380  0.16278454     1.78800
O557        O  0.31880075  0.92074864  0.23150630    -0.94200
O558        O  0.10348322  0.75782949  0.11112366    -0.42000
O559        O  0.20493050  0.85273350  0.16678194    -0.78600
O560        O  0.12746838  0.81930717  0.18710678    -0.97300
O561        O  0.14014662  0.86151414  0.27284499    -0.90600
O562        O  0.22347951  0.90041243  0.25218640    -0.93500
C563        C  0.13691983  0.70218459  0.21525118     1.00300
C564        C  0.28205400  0.83167456  0.31578652     1.13200
C565        C  0.08148577  0.72198098  0.33772238     1.04000
O566        O  0.04489472  0.74464014  0.22310930    -0.95600
O567        O  0.07270649  0.83838897  0.23717229    -0.91400
O568        O  0.11374165  0.88720298  0.18316784    -0.84500
C569        C  0.08057946  0.86660078  0.20707846     1.10600
O570        O  0.23149396  0.88257617  0.39576020    -0.97600
Zr571      Zr  0.18843062  0.87584477  0.32969634     1.88900
O572        O  0.16297094  0.92936522  0.24566380    -0.74300
O573        O  0.03856937  0.79033406  0.31285192    -0.53500
O574        O  0.15086653  0.85869387  0.40825734    -0.98200
O575        O  0.23477482  0.94356131  0.34110270    -0.55400
O576        O  0.14676164  0.90431786  0.32333151    -0.74800
C577        C  0.14793868  0.92685321  0.28906670     0.97600
O578        O  0.16944126  0.90668492  0.11272594    -0.63600
O579        O  0.29005470  0.83965440  0.18215974    -0.58400
O580        O  0.23812580  0.93760398  0.16564560    -0.95100
O581        O  0.27608013  0.91051291  0.15794091    -0.93500
O582        O  0.20373315  0.76603245  0.12431038    -0.93900
O583        O  0.17539606  0.80501041  0.07646440    -0.92600
C584        C  0.27043022  0.93848499  0.15246323     1.16400
H585        H  0.22548905  0.78421129  0.21014094     0.32400
H586        H  0.10795250  0.81597002  0.16406067     0.43200
H587        H  0.24299268  0.92724392  0.25269436     0.36700
H588        H  0.13594244  0.80040643  0.36082177     0.33200
H589        H  0.10350625  0.73566167  0.09714772     0.25000
H590        H  0.01884541  0.76264978  0.31517225     0.30900
H591        H  0.15531617  0.88318072  0.42041199     0.36900
H592        H  0.18552724  0.74013400  0.11321805     0.31300
H593        H  0.30540001  0.85883753  0.15523892     0.30200
H594        H  0.33771572  0.91393788  0.21676168     0.31900
H595        H  0.22456403  0.94900245  0.37147135     0.30800
H596        H  0.17362490  0.82836395  0.07317468     0.34800
H597        H  0.19242141  0.90836563  0.09399543     0.27600
H598        H  0.17526437  0.71924059  0.36392681     0.31800
H599        H  0.22848339  0.89908553  0.41927861     0.34700
H600        H  0.31038209  0.84207047  0.20466949     0.27300
H601        H  0.14610044  0.88429653  0.09987055     0.40100
H602        H  0.04522495  0.72156349  0.23457444     0.30200
H603        H  0.07978589  0.74637875  0.13408952     0.37800
H604        H  0.22964847  0.95767427  0.31527086     0.29700
H605        H  0.04716698  0.79681715  0.34647787     0.29700
H606        H  0.16857670  0.74704090  0.39593797     0.30000
C607        C  0.37404211  0.51537970  0.11916983     0.79200
N608        N  0.34089218  0.97916058  0.12656020    -0.79100
C609        C  0.30417259  0.97490285  0.13520219     0.81600
N610        N  0.30056727  0.50632718  0.13770401    -0.79100
C611        C  0.33236228  0.54165304  0.13096203     0.81700
N612        N  0.36912205  0.54614384  0.12125306    -0.80800
C613        C  0.10715294  0.98271337  0.34634554     0.79200
N614        N  0.13813619  0.51847757  0.33097920    -0.79100
C615        C  0.16727876  0.52189186  0.29865343     0.81600
N616        N  0.16586315  0.99060109  0.28324761    -0.79100
C617        C  0.13827841  0.95581059  0.30060833     0.81700
N618        N  0.10875741  0.95122903  0.33324383    -0.80800
C619        C  0.10365314  0.60807829  0.15996414     0.79200
N620        N  0.13653181  0.60563036  0.16980201    -0.79100
C621        C  0.16426092  0.63137888  0.19894047     0.81600
N622        N  0.15922444  0.65878287  0.21716752    -0.79100
C623        C  0.12957284  0.66399333  0.20505487     0.81700
N624        N  0.10160447  0.63900526  0.17517250    -0.80800
C625        C  0.38632817  0.87178695  0.35507818     0.79200
N626        N  0.35121573  0.86967521  0.34436857    -0.79100
C627        C  0.31820865  0.83508245  0.33576543     0.81600
N628        N  0.32057382  0.80335421  0.33774715    -0.79100
C629        C  0.35487265  0.80472138  0.34680581     0.81700
N630        N  0.38779406  0.83883761  0.35566017    -0.80800
C631        C  0.01456365  0.89861264  0.15539821     0.79200
N632        N  0.04901783  0.90015670  0.16788122    -0.79100
C633        C  0.04703789  0.87175083  0.19760520     0.81600
N634        N  0.01156831  0.84208188  0.21284567    -0.79100
C635        C  0.47789869  0.83821828  0.19820615     0.81700
N636        N  0.47881010  0.86644402  0.16903575    -0.80800
Zr637      Zr  0.48771812  0.99738075  0.09658411     2.17500
O638        O  0.46890557  0.98830516  0.18356415    -0.52400
O639        O  0.04265536  0.55305110  0.13643820    -0.75600
O640        O  0.49828192  0.94653304  0.13368663    -0.82400
O641        O  0.43473627  0.54833088  0.07299715    -0.84100
O642        O  0.03359412  0.93244753  0.07855523    -0.79700
O643        O  0.42423918  0.49664474  0.11650411    -0.91400
O644        O  0.08947901  0.59329508  0.07869807    -0.77300
O645        O  0.04830073  0.51520587  0.05003874    -0.86800
O646        O  0.00424645  0.55367569  0.04674136    -0.86500
O647        O  0.47400582  0.94434789  0.04619939    -0.73300
O648        O  0.43394185  0.98040123  0.04330401    -0.85400
Zr649      Zr  0.99645121  0.49952704  0.39607428     2.26400
Zr650      Zr  0.03560415  0.96320021  0.99965275     2.06300
Zr651      Zr  0.45121241  0.53575744  0.49255241     2.10000
Zr652      Zr  0.06378072  0.57031058  0.00032846     1.78800
O653        O  0.38052205  0.50287867  0.47765606    -0.94200
O654        O  0.13188164  0.58297250  0.99595811    -0.42000
O655        O  0.01078709  0.55171031  0.44706828    -0.78600
O656        O  0.05148027  0.51893098  0.44964890    -0.97300
O657        O  0.48140129  0.94539901  0.44743316    -0.90600
O658        O  0.43605549  0.98339970  0.44204534    -0.93500
C659        C  0.07646858  0.58314344  0.12305463     1.00300
C660        C  0.41354926  0.52081416  0.10368041     1.13200
C661        C  0.01627361  0.92842343  0.12087538     1.04000
O662        O  0.10403157  0.98343048  0.01725031    -0.95600
O663        O  0.07161631  0.96537939  0.42375132    -0.91400
O664        O  0.05208179  0.99163568  0.36429751    -0.84500
C665        C  0.07429819  0.97884535  0.37988158     1.10600
O666        O  0.37397785  0.90076494  0.06420271    -0.97600
Zr667      Zr  0.42137705  0.92879789  0.49347886     1.88900
O668        O  0.43670441  0.94044132  0.36419918    -0.74300
O669        O  0.01425899  0.89715667  0.48408457    -0.53500
O670        O  0.40469908  0.86399116  0.51711839    -0.98200
O671        O  0.35678430  0.91252060  0.46299309    -0.55400
O672        O  0.42249618  0.89590538  0.42358360    -0.74800
C673        C  0.41750964  0.90502003  0.38112016     0.97600
O674        O  0.00364561  0.51000707  0.30762423    -0.63600
O675        O  0.44283754  0.59118500  0.49016810    -0.58400
O676        O  0.00144839  0.56105856  0.36494255    -0.95100
O677        O  0.47013702  0.57852263  0.42134298    -0.93500
O678        O  0.06671315  0.63149140  0.00173029    -0.93900
O679        O  0.10459870  0.61439223  0.43219680    -0.92600
C680        C  0.48906048  0.58368240  0.38028982     1.16400
H681        H  0.00807893  0.57454767  0.06632376     0.32400
H682        H  0.07696320  0.52932605  0.43210522     0.43200
H683        H  0.41533615  0.97897439  0.42042092     0.36700
H684        H  0.46403989  0.92029647  0.06422196     0.33200
H685        H  0.14844305  0.60999857  0.00423202     0.25000
H686        H  0.03493927  0.89299706  0.49781276     0.30900
H687        H  0.38055382  0.84715867  0.49963791     0.36900
H688        H  0.09280399  0.64917964  0.01487212     0.31300
H689        H  0.41651898  0.58252680  0.50672714     0.30200
H690        H  0.36717437  0.48743763  0.50818795     0.31900
H691        H  0.34104671  0.88426781  0.46521726     0.30800
H692        H  0.08938928  0.60289954  0.40308711     0.34800
H693        H  0.03200575  0.52953540  0.30035415     0.27600
H694        H  0.49270243  0.99193645  0.19988597     0.31800
H695        H  0.34869373  0.88040783  0.05206393     0.34700
H696        H  0.46114014  0.60893866  0.01160200     0.27300
H697        H  0.00080713  0.48624450  0.29499377     0.40100
H698        H  0.10862062  0.99697110  0.04792208     0.30200
H699        H  0.13321191  0.56827834  0.02435640     0.37800
H700        H  0.36120426  0.91893442  0.42751278     0.29700
H701        H  0.48875706  0.88158649  0.00366195     0.29700
H702        H  0.44914097  0.96073359  0.18891657     0.30000
Zr703      Zr  0.39659298  0.72156055  0.79373520     2.17500
O704        O  0.42858678  0.74543128  0.86993545    -0.52400
O705        O  0.44323334  0.78016678  0.74483438    -0.75600
O706        O  0.44430059  0.69837860  0.81193617    -0.82400
O707        O  0.32217867  0.73823751  0.83695749    -0.84100
O708        O  0.42364671  0.64095476  0.77906546    -0.79700
O709        O  0.38887577  0.77131018  0.82924439    -0.91400
O710        O  0.41725413  0.78641911  0.67465203    -0.77300
O711        O  0.40659483  0.70481934  0.71473586    -0.86800
O712        O  0.36027124  0.73814123  0.73899418    -0.86500
O713        O  0.36479227  0.65378101  0.80417312    -0.73300
O714        O  0.32704880  0.68790352  0.82275729    -0.85400
Zr715      Zr  0.27533222  0.61501586  0.69561880     2.26400
Zr716      Zr  0.37652011  0.63712895  0.72492366     2.06300
Zr717      Zr  0.29227631  0.70325628  0.76444917     2.10000
Zr718      Zr  0.36948719  0.72069813  0.66050780     1.78800
O719        O  0.24360093  0.71051064  0.81352392    -0.94200
O720        O  0.42804675  0.73333442  0.61044904    -0.42000
O721        O  0.30048478  0.68309735  0.68614238    -0.78600
O722        O  0.34302765  0.65348838  0.66612443    -0.97300
O723        O  0.30834195  0.59923727  0.75419903    -0.90600
O724        O  0.26515378  0.63687652  0.77204397    -0.93500
C725        C  0.44298259  0.79974242  0.70704522     1.00300
C726        C  0.35571749  0.76943995  0.83884780     1.13200
C727        C  0.44593421  0.66744366  0.80607240     1.04000
O728        O  0.44093888  0.66076686  0.68194876    -0.95600
O729        O  0.36234316  0.60299889  0.65352946    -0.91400
O730        O  0.29527183  0.56950377  0.66343838    -0.84500
C731        C  0.32910847  0.57328614  0.64837969     1.10600
O732        O  0.32251627  0.62041789  0.91008312    -0.97600
Zr733      Zr  0.29636976  0.61988936  0.83055782     1.88900
O734        O  0.21870233  0.56351459  0.74362649    -0.74300
O735        O  0.36564163  0.57340995  0.74284904    -0.53500
O736        O  0.29552108  0.56084418  0.85090684    -0.97300
O737        O  0.26186786  0.63338143  0.89549479    -0.55400
O738        O  0.22629971  0.57240592  0.82500257    -0.74800
C739        C  0.20560998  0.55582607  0.78863992     0.97600
O740        O  0.25170472  0.59994095  0.61359969    -0.63600
O741        O  0.29816493  0.75865991  0.72016533    -0.58400
O742        O  0.21409559  0.61439045  0.68601877    -0.95100
O743        O  0.22653094  0.66502646  0.73121272    -0.93500
O744        O  0.34200750  0.75740075  0.62558940    -0.93900
O745        O  0.35652721  0.70930479  0.57463186    -0.92600
C746        C  0.20375248  0.63627215  0.70585343     1.16400
H747        H  0.36804637  0.76471024  0.73980829     0.32400
H748        H  0.34548229  0.64721927  0.63313370     0.43200
H749        H  0.23782297  0.62680484  0.78283844     0.36700
H750        H  0.37599344  0.64653701  0.83009095     0.33200
H751        H  0.43447175  0.75595639  0.58914956     0.25000
H752        H  0.39125011  0.57515185  0.73358895     0.30900
H753        H  0.27430416  0.54127312  0.83174315     0.36900
H754        H  0.36430667  0.77833018  0.60540241     0.31300
H755        H  0.27231677  0.74891019  0.70501198     0.30200
H756        H  0.23179516  0.72052221  0.79041388     0.31900
H757        H  0.24134387  0.60806356  0.90995410     0.30800
H758        H  0.32877276  0.68767803  0.57473608     0.34800
H759        H  0.25231549  0.62316793  0.60061651     0.27600
H760        H  0.45752763  0.75827885  0.86154181     0.31800
H761        H  0.30050196  0.59874086  0.92970322     0.34700
H762        H  0.29791394  0.77517751  0.74577981     0.27300
H763        H  0.27343172  0.59959678  0.59445168     0.40100
H764        H  0.43854742  0.67087012  0.64986672     0.30200
H765        H  0.44994545  0.74295766  0.63306001     0.37800
H766        H  0.24662122  0.64304428  0.87830884     0.29700
H767        H  0.36301375  0.57000128  0.77887117     0.29700
H768        H  0.42233884  0.72237457  0.89013693     0.30000
C769        C  0.99885049  0.61996173  0.85352555     0.79200
N770        N  0.46886019  0.62541893  0.84063317    -0.79100
C771        C  0.47553748  0.66121154  0.82949458     0.81600
N772        N  0.01189695  0.69106705  0.83166795    -0.79100
C773        C  0.04267663  0.68673875  0.84338248     0.81700
N774        N  0.03653700  0.65110149  0.85431039    -0.80800
Zr775      Zr  0.17841249  0.77575534  0.79708504     2.17500
O776        O  0.18719429  0.74649648  0.87059498    -0.52400
O777        O  0.16135782  0.71971860  0.74913496    -0.75600
O778        O  0.11384179  0.72192276  0.82829252    -0.82400
O779        O  0.28658262  0.86150516  0.79465020    -0.84100
O780        O  0.07957314  0.75221490  0.83607900    -0.79700
O781        O  0.24920435  0.79840258  0.81648509    -0.91400
O782        O  0.12501230  0.71812589  0.68582282    -0.77300
O783        O  0.12827394  0.76311324  0.74116402    -0.86800
O784        O  0.21127130  0.79703816  0.71815927    -0.86500
O785        O  0.14515769  0.80828862  0.82724754    -0.73300
O786        O  0.21443885  0.84126933  0.79658448    -0.85400
Zr787      Zr  0.17362259  0.88620980  0.69542373     2.26400
Zr788      Zr  0.09623612  0.79624651  0.76696680     2.06300
Zr789      Zr  0.25304532  0.86447539  0.72556849     2.10000
Zr790      Zr  0.16039290  0.78549309  0.66275831     1.78800
O791        O  0.31901090  0.92031246  0.73272225    -0.94200
O792        O  0.10338996  0.75757552  0.61165916    -0.42000
O793        O  0.20527485  0.85274013  0.66681396    -0.78600
O794        O  0.12773397  0.81928059  0.68703351    -0.97300
O795        O  0.14007506  0.86138552  0.77255672    -0.90600
O796        O  0.22344803  0.90026014  0.75234143    -0.93500
C797        C  0.13739326  0.70213379  0.71504997     1.00300
C798        C  0.28205102  0.83143084  0.81591370     1.13200
C799        C  0.08144181  0.72187089  0.83744825     1.04000
O800        O  0.04486880  0.74470724  0.72264327    -0.95600
O801        O  0.07269234  0.83806747  0.73655856    -0.91400
O802        O  0.11389890  0.88698284  0.68275280    -0.84500
C803        C  0.08064871  0.86630158  0.70646609     1.10600
O804        O  0.23106234  0.88259950  0.89599325    -0.97600
Zr805      Zr  0.18813264  0.87560630  0.82967295     1.88900
O806        O  0.16321663  0.92945881  0.74509283    -0.74300
O807        O  0.03867163  0.79007361  0.81304295    -0.53500
O808        O  0.15027428  0.85780066  0.90808419    -0.98200
O809        O  0.23426528  0.94327132  0.84160632    -0.55400
O810        O  0.14652852  0.90414827  0.82263372    -0.74800
C811        C  0.14798775  0.92685356  0.78839434     0.97600
O812        O  0.16989003  0.90623843  0.61225078    -0.63600
O813        O  0.28971462  0.83927827  0.68229407    -0.58400
O814        O  0.23850691  0.93781889  0.66565612    -0.95100
O815        O  0.27709110  0.91127180  0.65923359    -0.93500
O816        O  0.20464072  0.76688447  0.62403791    -0.93900
O817        O  0.17469740  0.80468821  0.57631348    -0.92600
C818        C  0.27108453  0.93897577  0.65309256     1.16400
H819        H  0.22557616  0.78411587  0.71033459     0.32400
H820        H  0.10827554  0.81595762  0.66390846     0.43200
H821        H  0.24294386  0.92709099  0.75293262     0.36700
H822        H  0.13591022  0.80015763  0.86072729     0.33200
H823        H  0.10333175  0.73535999  0.59772397     0.25000
H824        H  0.01875714  0.76243815  0.81478643     0.30900
H825        H  0.15266665  0.88179623  0.91916662     0.36900
H826        H  0.18751826  0.73931073  0.61885623     0.31300
H827        H  0.30548907  0.85868372  0.65575976     0.30200
H828        H  0.33775445  0.91389581  0.71652366     0.31900
H829        H  0.22356039  0.94865660  0.87159894     0.30800
H830        H  0.17195223  0.82749941  0.57297635     0.34800
H831        H  0.19264420  0.90735374  0.59366733     0.27600
H832        H  0.17451576  0.71897024  0.86440534     0.31800
H833        H  0.22743860  0.89862866  0.91972854     0.34700
H834        H  0.30968511  0.84109503  0.70499336     0.27300
H835        H  0.14630148  0.88393817  0.59965317     0.40100
H836        H  0.04613761  0.72182824  0.73258153     0.30200
H837        H  0.07982194  0.74619089  0.63482741     0.37800
H838        H  0.22958644  0.95745079  0.81540799     0.29700
H839        H  0.04716973  0.79602154  0.84679544     0.29700
H840        H  0.16957791  0.74790243  0.89617051     0.30000
C841        C  0.37389309  0.51478808  0.61899152     0.79200
N842        N  0.34150780  0.97967000  0.62694896    -0.79100
C843        C  0.30477988  0.97540886  0.63557512     0.81600
N844        N  0.30045824  0.50575837  0.63777817    -0.79100
C845        C  0.33228187  0.54108370  0.63138477     0.81700
N846        N  0.36902524  0.54556562  0.62156372    -0.80800
C847        C  0.10730807  0.98271018  0.84586723     0.79200
N848        N  0.13797589  0.51813133  0.83113801    -0.79100
C849        C  0.16715836  0.52150628  0.79889450     0.81600
N850        N  0.16602446  0.99066268  0.78270414    -0.79100
C851        C  0.13837246  0.95584267  0.79993313     0.81700
N852        N  0.10884716  0.95123443  0.83258003    -0.80800
C853        C  0.10405225  0.60810879  0.65967460     0.79200
N854        N  0.13671504  0.60540283  0.66984782    -0.79100
C855        C  0.16429630  0.63094917  0.69929104     0.81600
N856        N  0.15933571  0.65842043  0.71748467    -0.79100
C857        C  0.12992792  0.66388936  0.70499403     0.81700
N858        N  0.10211485  0.63909128  0.67483250    -0.80800
C859        C  0.38627707  0.87144764  0.85539802     0.79200
N860        N  0.35120047  0.86937590  0.84458711    -0.79100
C861        C  0.31819247  0.83480582  0.83589488     0.81600
N862        N  0.32052057  0.80306274  0.83788791    -0.79100
C863        C  0.35477966  0.80439199  0.84705724     0.81700
N864        N  0.38770377  0.83848022  0.85600355    -0.80800
C865        C  0.01471973  0.89855188  0.65503804     0.79200
N866        N  0.04915927  0.89995336  0.66728047    -0.79100
C867        C  0.04713694  0.87147228  0.69688854     0.81600
N868        N  0.01165050  0.84188554  0.71222771    -0.79100
C869        C  0.47757101  0.83817491  0.69808158     0.81700
N870        N  0.47865145  0.86638214  0.66866758    -0.80800
Zr871      Zr  0.48801572  0.99758576  0.59649256     2.17500
O872        O  0.46917099  0.98847009  0.68345555    -0.52400
O873        O  0.04318520  0.55310395  0.63608005    -0.75600
O874        O  0.49857060  0.94671842  0.63354313    -0.82400
O875        O  0.43450653  0.54788902  0.57269126    -0.84100
O876        O  0.03365219  0.93244214  0.57835144    -0.79700
O877        O  0.42422781  0.49619260  0.61601388    -0.91400
O878        O  0.08980768  0.59360843  0.57831913    -0.77300
O879        O  0.04863187  0.51539480  0.54983718    -0.86800
O880        O  0.00444536  0.55368896  0.54659576    -0.86500
O881        O  0.47415751  0.94453379  0.54613536    -0.73300
O882        O  0.43420780  0.98048083  0.54327586    -0.85400
Zr883      Zr  0.99637677  0.49966171  0.89613501     2.26400
Zr884      Zr  0.03525683  0.96316823  0.49976647     2.06300
Zr885      Zr  0.45096542  0.53568310  0.99294141     2.10000
Zr886      Zr  0.06392952  0.57043094  0.50006772     1.78800
O887        O  0.38009069  0.50180292  0.97898214    -0.94200
O888        O  0.13198409  0.58297948  0.49595099    -0.42000
O889        O  0.01062296  0.55168117  0.94737747    -0.78600
O890        O  0.05136695  0.51887832  0.94975167    -0.97300
O891        O  0.48126410  0.94525320  0.94769384    -0.90600
O892        O  0.43587562  0.98327404  0.94213026    -0.93500
C893        C  0.07690964  0.58328827  0.62269006     1.00300
C894        C  0.41340914  0.52030042  0.60333075     1.13200
C895        C  0.01640419  0.92841461  0.62069024     1.04000
O896        O  0.10392227  0.98430707  0.51723077    -0.95600
O897        O  0.07202398  0.96561971  0.92347810    -0.91400
O898        O  0.05217519  0.99146669  0.86388599    -0.84500
C899        C  0.07451111  0.97884545  0.87950606     1.10600
O900        O  0.37206994  0.90092956  0.56200854    -0.97600
Zr901      Zr  0.42120223  0.92869725  0.99366648     1.88900
O902        O  0.43672433  0.94007609  0.86455628    -0.74300
O903        O  0.01475420  0.89731175  0.98351251    -0.53500
O904        O  0.40249043  0.86315145  0.01626096    -0.98200
O905        O  0.35679383  0.91337872  0.96352692    -0.55400
O906        O  0.42219716  0.89551173  0.92408337    -0.74800
C907        C  0.41741411  0.90465126  0.88152529     0.97600
O908        O  0.00362812  0.51051542  0.80773083    -0.63600
O909        O  0.44145286  0.59044075  0.98986915    -0.58400
O910        O  0.00129017  0.56128848  0.86551153    -0.95100
O911        O  0.46954355  0.57826739  0.92161353    -0.93500
O912        O  0.06589327  0.63117932  0.50129191    -0.93900
O913        O  0.10448324  0.61439133  0.93258371    -0.92600
C914        C  0.48908706  0.58376741  0.88095527     1.16400
H915        H  0.00826222  0.57455094  0.56618701     0.32400
H916        H  0.07687535  0.52919438  0.93229961     0.43200
H917        H  0.41516460  0.97886736  0.92048925     0.36700
H918        H  0.46422099  0.92050176  0.56419219     0.33200
H919        H  0.14840716  0.60955428  0.50598225     0.25000
H920        H  0.03502535  0.89291497  0.99803174     0.30900
H921        H  0.37732810  0.84703897  0.00018252     0.36900
H922        H  0.09206283  0.64922205  0.51395944     0.31300
H923        H  0.41522346  0.58157906  0.00681263     0.30200
H924        H  0.36731967  0.48476880  0.00853182     0.31900
H925        H  0.34033616  0.88518909  0.96698561     0.30800
H926        H  0.09074777  0.60165017  0.90312494     0.34800
H927        H  0.03185954  0.53047089  0.80063355     0.27600
H928        H  0.49273679  0.99148094  0.69975234     0.31800
H929        H  0.34910756  0.87746450  0.55062158     0.34700
H930        H  0.46244094  0.60923594  0.51235375     0.27300
H931        H  0.00140664  0.48704367  0.79492772     0.40100
H932        H  0.10803652  0.99691245  0.54859491     0.30200
H933        H  0.13280163  0.56713417  0.52331563     0.37800
H934        H  0.36099832  0.91879227  0.92784049     0.29700
H935        H  0.49012395  0.88175635  0.50541987     0.29700
H936        H  0.44893619  0.96101150  0.68862133     0.30000
Zr937      Zr  0.89646317  0.22148894  0.29316385     2.17500
O938        O  0.92837864  0.24514518  0.36945122    -0.52400
O939        O  0.94333666  0.28008970  0.24454631    -0.75600
O940        O  0.94421894  0.19833218  0.31114150    -0.82400
O941        O  0.82191429  0.23826194  0.33645385    -0.84100
O942        O  0.92368513  0.14099122  0.27807846    -0.79700
O943        O  0.88862287  0.27123851  0.32863861    -0.91400
O944        O  0.91743852  0.28629119  0.17426257    -0.77300
O945        O  0.90621430  0.20454006  0.21419311    -0.86800
O946        O  0.86012598  0.23810983  0.23848675    -0.86500
O947        O  0.86482228  0.15373272  0.30365341    -0.73300
O948        O  0.82694246  0.18786347  0.32215057    -0.85400
Zr949      Zr  0.77507168  0.11495790  0.19515375     2.26400
Zr950      Zr  0.87613314  0.13678220  0.22443944     2.06300
Zr951      Zr  0.79213913  0.20326586  0.26394125     2.10000
Zr952      Zr  0.86920989  0.22060459  0.16003044     1.78800
O953        O  0.74352715  0.21087887  0.31263251    -0.94200
O954        O  0.92710255  0.23282271  0.10893259    -0.42000
O955        O  0.80020161  0.18306008  0.18562866    -0.78600
O956        O  0.84277260  0.15341942  0.16576227    -0.97300
O957        O  0.80799457  0.09900211  0.25362420    -0.90600
O958        O  0.76502515  0.13687059  0.27162821    -0.93500
C959        C  0.94312389  0.29965010  0.20673696     1.00300
C960        C  0.85549216  0.26942480  0.33833381     1.13200
C961        C  0.94591142  0.16744082  0.30515427     1.04000
O962        O  0.93918204  0.15547004  0.18062093    -0.95600
O963        O  0.86222921  0.10310175  0.15276606    -0.91400
O964        O  0.79520154  0.06954092  0.16301859    -0.84500
C965        C  0.82901213  0.07334525  0.14777940     1.10600
O966        O  0.82310633  0.12022780  0.40908555    -0.97600
Zr967      Zr  0.79640555  0.11988745  0.33001758     1.88900
O968        O  0.71875499  0.06349312  0.24353119    -0.74300
O969        O  0.86193766  0.07231348  0.24539744    -0.53500
O970        O  0.79451781  0.06030498  0.35023835    -0.97300
O971        O  0.76275592  0.13403857  0.39527779    -0.55400
O972        O  0.72634556  0.07262249  0.32486294    -0.74800
C973        C  0.70569575  0.05591994  0.28854999     0.97600
O974        O  0.75092876  0.09898865  0.11346186    -0.63600
O975        O  0.79847396  0.25886689  0.21964892    -0.58400
O976        O  0.71388357  0.11443924  0.18532477    -0.95100
O977        O  0.72646180  0.16509538  0.23053467    -0.93500
O978        O  0.84224934  0.25775462  0.12504768    -0.93900
O979        O  0.85500091  0.20822634  0.07460329    -0.92600
C980        C  0.70362408  0.13638808  0.20515588     1.16400
H981        H  0.86798132  0.26470285  0.23924826     0.32400
H982        H  0.84517103  0.14715450  0.13275474     0.43200
H983        H  0.73770017  0.12685166  0.28241213     0.36700
H984        H  0.87604907  0.14648031  0.32954061     0.33200
H985        H  0.93461600  0.25654949  0.08942386     0.25000
H986        H  0.88656420  0.07237246  0.23543770     0.30900
H987        H  0.77446757  0.04132957  0.32930940     0.36900
H988        H  0.86469769  0.27863350  0.10498381     0.31300
H989        H  0.77207794  0.24969501  0.20623645     0.30200
H990        H  0.73230480  0.22148957  0.28951101     0.31900
H991        H  0.74096685  0.10885884  0.40849397     0.30800
H992        H  0.82744538  0.18617203  0.07538029     0.34800
H993        H  0.75184055  0.12222034  0.09992269     0.27600
H994        H  0.95732597  0.25850851  0.36089190     0.31800
H995        H  0.80087036  0.09913758  0.42917929     0.34700
H996        H  0.80011272  0.27619390  0.24522699     0.27300
H997        H  0.77233833  0.09804950  0.09438386     0.40100
H998        H  0.95724441  0.18251419  0.18779711     0.30200
H999        H  0.94879196  0.24051515  0.13157244     0.37800
H1000       H  0.74909236  0.14553188  0.37833158     0.29700
H1001       H  0.86050354  0.07024429  0.28149102     0.29700
H1002       H  0.92265639  0.22208257  0.38925977     0.30000
C1003       C  0.49911445  0.12000287  0.35352195     0.79200
N1004       N  0.96876164  0.12538751  0.33982747    -0.79100
C1005       C  0.97548459  0.16118838  0.32857864     0.81600
N1006       N  0.51188462  0.19102747  0.33182287    -0.79100
C1007       C  0.54268820  0.18685977  0.34389973     0.81700
N1008       N  0.53667864  0.15126432  0.35478275    -0.80800
Zr1009     Zr  0.67829675  0.27585908  0.29708466     2.17500
O1010       O  0.68708825  0.24630811  0.37030600    -0.52400
O1011       O  0.66149454  0.22004308  0.24875468    -0.75600
O1012       O  0.61380456  0.22215802  0.32872014    -0.82400
O1013       O  0.78650705  0.36165303  0.29463885    -0.84100
O1014       O  0.57944730  0.25237833  0.33660387    -0.79700
O1015       O  0.74902694  0.29858879  0.31670937    -0.91400
O1016       O  0.62448027  0.21829023  0.18616641    -0.77300
O1017       O  0.62805925  0.26325357  0.24135398    -0.86800
O1018       O  0.71104126  0.29719732  0.21805649    -0.86500
O1019       O  0.64515618  0.30842348  0.32754771    -0.73300
O1020       O  0.71442937  0.34135128  0.29652944    -0.85400
Zr1021     Zr  0.67349333  0.38631654  0.19574800     2.26400
Zr1022     Zr  0.59614082  0.29641099  0.26742112     2.06300
Zr1023     Zr  0.75299127  0.36461323  0.22550646     2.10000
Zr1024     Zr  0.66001368  0.28562729  0.16286622     1.78800
O1025       O  0.81870012  0.42083784  0.23256358    -0.94200
O1026       O  0.60309613  0.25809126  0.11161701    -0.42000
O1027       O  0.70505894  0.35282528  0.16695772    -0.78600
O1028       O  0.62740848  0.31941575  0.18736495    -0.97300
O1029       O  0.64016320  0.36151109  0.27296572    -0.90600
O1030       O  0.72346532  0.40043807  0.25248534    -0.93500
C1031       C  0.63724467  0.20237828  0.21494444     1.00300
C1032       C  0.78190577  0.33158445  0.31602893     1.13200
C1033       C  0.58140204  0.22206973  0.33803368     1.04000
O1034       O  0.54488415  0.24463791  0.22323347    -0.95600
O1035       O  0.57287020  0.33862100  0.23757136    -0.91400
O1036       O  0.61388676  0.38738508  0.18347138    -0.84500
C1037       C  0.58075600  0.36684433  0.20748984     1.10600
O1038       O  0.73168517  0.38222594  0.39551994    -0.97600
Zr1039     Zr  0.68833257  0.37573479  0.32993268     1.88900
O1040       O  0.66314364  0.42948594  0.24569583    -0.74300
O1041       O  0.53833613  0.29012824  0.31296582    -0.53500
O1042       O  0.65087806  0.35840215  0.40858647    -0.98200
O1043       O  0.73456832  0.44329561  0.34223944    -0.55400
O1044       O  0.64686543  0.40444339  0.32338753    -0.74800
C1045       C  0.64804025  0.42694684  0.28906214     0.97600
O1046       O  0.66982770  0.40653614  0.11263900    -0.63600
O1047       O  0.78996846  0.33934010  0.18311178    -0.58400
O1048       O  0.73837623  0.43764523  0.16560729    -0.95100
O1049       O  0.77670629  0.41088150  0.15851958    -0.93500
O1050       O  0.70322344  0.26578506  0.12423331    -0.93900
O1051       O  0.67496204  0.30549740  0.07662168    -0.92600
C1052       C  0.77081633  0.43868105  0.15262643     1.16400
H1053       H  0.72532284  0.28427810  0.21007374     0.32400
H1054       H  0.60789956  0.31613692  0.16433441     0.43200
H1055       H  0.74293507  0.42727963  0.25305194     0.36700
H1056       H  0.63595432  0.30030723  0.36104137     0.33200
H1057       H  0.60335357  0.23624711  0.09696036     0.25000
H1058       H  0.51804642  0.26264697  0.31310921     0.30900
H1059       H  0.65557496  0.38289376  0.42102341     0.36900
H1060       H  0.68480359  0.24071885  0.11110525     0.31300
H1061       H  0.80374796  0.35733980  0.15462390     0.30200
H1062       H  0.83742412  0.41532287  0.21445811     0.31900
H1063       H  0.72404339  0.44854585  0.37250137     0.30800
H1064       H  0.67266788  0.32857565  0.07356372     0.34800
H1065       H  0.69222936  0.40711112  0.09387987     0.27600
H1066       H  0.67540751  0.21901249  0.36332784     0.31800
H1067       H  0.72844086  0.39829313  0.41954836     0.34700
H1068       H  0.81153716  0.34363378  0.20464391     0.27300
H1069       H  0.64590035  0.38449054  0.10020946     0.40100
H1070       H  0.54623581  0.22183092  0.23334002     0.30200
H1071       H  0.57950017  0.24616628  0.13475752     0.37800
H1072       H  0.72973354  0.45757911  0.31634606     0.29700
H1073       H  0.54612864  0.29474449  0.34713402     0.29700
H1074       H  0.66865202  0.24661015  0.39567639     0.30000
C1075       C  0.87373503  0.01478506  0.11846956     0.79200
N1076       N  0.84123763  0.47954337  0.12638500    -0.79100
C1077       C  0.80445572  0.47514054  0.13508550     0.81600
N1078       N  0.80034597  0.00580021  0.13748836    -0.79100
C1079       C  0.83215509  0.04111581  0.13085195     0.81700
N1080       N  0.86887976  0.04557836  0.12092615    -0.80800
C1081       C  0.60704974  0.48267189  0.34620950     0.79200
N1082       N  0.63818994  0.01833177  0.33114739    -0.79100
C1083       C  0.66732623  0.02162854  0.29890955     0.81600
N1084       N  0.66565907  0.49060848  0.28293021    -0.79100
C1085       C  0.63821144  0.45581902  0.30045948     0.81700
N1086       N  0.60873139  0.45121394  0.33317921    -0.80800
C1087       C  0.60354827  0.10806766  0.15991560     0.79200
N1088       N  0.63633460  0.10546387  0.16971045    -0.79100
C1089       C  0.66420964  0.13121703  0.19867193     0.81600
N1090       N  0.65943246  0.15882785  0.21674557    -0.79100
C1091       C  0.62986295  0.16417800  0.20466181     0.81700
N1092       N  0.60173758  0.13915985  0.17495281    -0.80800
C1093       C  0.88617234  0.37147472  0.35510795     0.79200
N1094       N  0.85106373  0.36942154  0.34456779    -0.79100
C1095       C  0.81801829  0.33487926  0.33594814     0.81600
N1096       N  0.82032497  0.30311718  0.33777371    -0.79100
C1097       C  0.85461724  0.30441600  0.34667472     0.81700
N1098       N  0.88759069  0.33849943  0.35553475    -0.80800
C1099       C  0.51468174  0.39880750  0.15590815     0.79200
N1100       N  0.54916325  0.40044204  0.16847564    -0.79100
C1101       C  0.54720968  0.37200067  0.19809570     0.81600
N1102       N  0.51175302  0.34222367  0.21312610    -0.79100
C1103       C  0.97768795  0.33815550  0.19790645     0.81700
N1104       N  0.97868682  0.36638537  0.16863666    -0.80800
Zr1105     Zr  0.98787181  0.49761866  0.09643465     2.17500
O1106       O  0.96854652  0.48821377  0.18326657    -0.52400
O1107       O  0.54242025  0.05313517  0.13639211    -0.75600
O1108       O  0.99852531  0.44681257  0.13358732    -0.82400
O1109       O  0.93433293  0.04780104  0.07214653    -0.84100
O1110       O  0.53374673  0.43272692  0.07917366    -0.79700
O1111       O  0.92401721  0.99611704  0.11551126    -0.91400
O1112       O  0.58952702  0.09314388  0.07876871    -0.77300
O1113       O  0.54820277  0.01493688  0.05031116    -0.86800
O1114       O  0.50416924  0.05344856  0.04695574    -0.86500
O1115       O  0.97407291  0.44456022  0.04615100    -0.73300
O1116       O  0.93407759  0.48058586  0.04321383    -0.85400
Zr1117     Zr  0.49644555  0.99972659  0.39606399     2.26400
Zr1118     Zr  0.53519883  0.46308271  0.00024369     2.06300
Zr1119     Zr  0.95105931  0.03579408  0.49255188     2.10000
Zr1120     Zr  0.56373124  0.07006838  0.00062014     1.78800
O1121       O  0.88030146  0.00290545  0.47808442    -0.94200
O1122       O  0.63177783  0.08252068  0.99682959    -0.42000
O1123       O  0.51066717  0.05170703  0.44740573    -0.78600
O1124       O  0.55140651  0.01900298  0.44969036    -0.97300
O1125       O  0.98152307  0.44529896  0.44763282    -0.90600
O1126       O  0.93611456  0.48320400  0.44209224    -0.93500
C1127       C  0.57633636  0.08314142  0.12305886     1.00300
C1128       C  0.91321510  0.02022668  0.10278123     1.13200
C1129       C  0.51633278  0.42859372  0.12144198     1.04000
O1130       O  0.60354985  0.48218840  0.01667127    -0.95600
O1131       O  0.57156292  0.46533284  0.42361245    -0.91400
O1132       O  0.55203880  0.49162599  0.36420441    -0.84500
C1133       C  0.57422538  0.47879978  0.37975488     1.10600
O1134       O  0.87262855  0.40161459  0.06297402    -0.97600
Zr1135     Zr  0.92154068  0.42872504  0.49379888     1.88900
O1136       O  0.93680740  0.43999143  0.36442290    -0.74300
O1137       O  0.51361295  0.39705995  0.48264558    -0.53500
O1138       O  0.90514418  0.36403561  0.51775811    -0.98200
O1139       O  0.85702663  0.41323748  0.46384734    -0.55400
O1140       O  0.92160718  0.39528513  0.42409067    -0.74800
C1141       C  0.91723840  0.40456956  0.38140702     0.97600
O1142       O  0.50425006  0.01040079  0.30762962    -0.63600
O1143       O  0.94361671  0.09176727  0.49051765    -0.58400
O1144       O  0.50111896  0.06113060  0.36521025    -0.95100
O1145       O  0.96960274  0.07837023  0.42117334    -0.93500
O1146       O  0.56592657  0.13088987  0.00236079    -0.93900
O1147       O  0.60470356  0.11563932  0.43365064    -0.92600
C1148       C  0.98894203  0.08373540  0.38037960     1.16400
H1149       H  0.50795581  0.07429108  0.06656083     0.32400
H1150       H  0.57689077  0.02940145  0.43215718     0.43200
H1151       H  0.91534492  0.47868884  0.42049844     0.36700
H1152       H  0.96413410  0.42055986  0.06426923     0.33200
H1153       H  0.64841829  0.10962257  0.00474180     0.25000
H1154       H  0.53513081  0.39314008  0.49395303     0.30900
H1155       H  0.88074665  0.34706275  0.50079160     0.36900
H1156       H  0.59132885  0.14841786  0.01708107     0.31300
H1157       H  0.91734540  0.08336197  0.50704339     0.30200
H1158       H  0.86723230  0.98566118  0.50739795     0.31900
H1159       H  0.84050075  0.38506668  0.46752466     0.30800
H1160       H  0.58883969  0.10560068  0.40461528     0.34800
H1161       H  0.53252491  0.03029979  0.30069525     0.27600
H1162       H  0.99205121  0.49127084  0.19976570     0.31800
H1163       H  0.84937896  0.37818117  0.05201229     0.34700
H1164       H  0.96370985  0.10965351  0.01171027     0.27300
H1165       H  0.50201772  0.98686778  0.29502519     0.40100
H1166       H  0.60914539  0.49695401  0.04638934     0.30200
H1167       H  0.63302848  0.06803605  0.02553067     0.37800
H1168       H  0.86113614  0.41849738  0.42813000     0.29700
H1169       H  0.99030791  0.38166728  0.00519429     0.29700
H1170       H  0.94837828  0.46072166  0.18825438     0.30000
Zr1171     Zr  0.89656877  0.22132827  0.79304666     2.17500
O1172       O  0.92920232  0.24515413  0.86890932    -0.52400
O1173       O  0.94334545  0.27978823  0.74398784    -0.75600
O1174       O  0.94426050  0.19800343  0.81062851    -0.82400
O1175       O  0.82202633  0.23827194  0.83641325    -0.84100
O1176       O  0.92288180  0.14016220  0.77864500    -0.79700
O1177       O  0.88874345  0.27103354  0.82877517    -0.91400
O1178       O  0.91710044  0.28619336  0.67413185    -0.77300
O1179       O  0.90620244  0.20432429  0.71408244    -0.86800
O1180       O  0.86021940  0.23800058  0.73846504    -0.86500
O1181       O  0.86465873  0.15354447  0.80358606    -0.73300
O1182       O  0.82708561  0.18775853  0.82216433    -0.85400
Zr1183     Zr  0.77488042  0.11484848  0.69518705     2.26400
Zr1184     Zr  0.87596830  0.13657825  0.72431933     2.06300
Zr1185     Zr  0.79223207  0.20315818  0.76402141     2.10000
Zr1186     Zr  0.86923494  0.22043783  0.65996098     1.78800
O1187       O  0.74373897  0.21026479  0.81369010    -0.94200
O1188       O  0.92774158  0.23292815  0.60992259    -0.42000
O1189       O  0.80024265  0.18295428  0.68568338    -0.78600
O1190       O  0.84255070  0.15322139  0.66566107    -0.97300
O1191       O  0.80782034  0.09889418  0.75361664    -0.90600
O1192       O  0.76488936  0.13674673  0.77166382    -0.93500
C1193       C  0.94302686  0.29943179  0.70632150     1.00300
C1194       C  0.85565839  0.26937508  0.83824028     1.13200
C1195       C  0.94559878  0.16688580  0.80508585     1.04000
O1196       O  0.93936391  0.15664633  0.68046532    -0.95600
O1197       O  0.86185618  0.10304339  0.65252078    -0.91400
O1198       O  0.79488994  0.06928668  0.66334905    -0.84500
C1199       C  0.82868199  0.07316951  0.64788215     1.10600
O1200       O  0.82239945  0.11882555  0.90907301    -0.97600
Zr1201     Zr  0.79625465  0.11975058  0.83001714     1.88900
O1202       O  0.71832261  0.06364842  0.74359948    -0.74300
O1203       O  0.86285674  0.07218354  0.74316741    -0.53500
O1204       O  0.79435692  0.06010886  0.84972429    -0.97300
O1205       O  0.76321656  0.13473345  0.89514825    -0.55400
O1206       O  0.72612649  0.07254396  0.82495407    -0.74800
C1207       C  0.70536329  0.05596777  0.78865227     0.97600
O1208       O  0.75038387  0.09866638  0.61367602    -0.63600
O1209       O  0.79829649  0.25851317  0.71940971    -0.58400
O1210       O  0.71408863  0.11493616  0.68501490    -0.95100
O1211       O  0.72648518  0.16530966  0.73073830    -0.93500
O1212       O  0.84162692  0.25671859  0.62410808    -0.93900
O1213       O  0.85637508  0.20869038  0.57412294    -0.92600
C1214       C  0.70375759  0.13673968  0.70510152     1.16400
H1215       H  0.86804563  0.26458230  0.73930006     0.32400
H1216       H  0.84483837  0.14698758  0.63260314     0.43200
H1217       H  0.73758253  0.12683769  0.78245885     0.36700
H1218       H  0.87583690  0.14632601  0.82956268     0.33200
H1219       H  0.93471712  0.25604493  0.58934548     0.25000
H1220       H  0.88804665  0.07305186  0.73401123     0.30900
H1221       H  0.77395357  0.04111468  0.82915300     0.36900
H1222       H  0.86386336  0.27740394  0.60357100     0.31300
H1223       H  0.77178069  0.24926172  0.70631007     0.30200
H1224       H  0.73244167  0.22106841  0.79098112     0.31900
H1225       H  0.74127173  0.10970522  0.90854686     0.30800
H1226       H  0.82891938  0.18653521  0.57425833     0.34800
H1227       H  0.75230164  0.12223268  0.59962522     0.27600
H1228       H  0.95809004  0.25834840  0.86002326     0.31800
H1229       H  0.79960763  0.09847034  0.92931905     0.34700
H1230       H  0.80016238  0.27600819  0.74485895     0.27300
H1231       H  0.77119625  0.09661445  0.59481298     0.40100
H1232       H  0.95778951  0.18286517  0.69043669     0.30200
H1233       H  0.94946218  0.24171697  0.63271312     0.37800
H1234       H  0.74972531  0.14635991  0.87809455     0.29700
H1235       H  0.86030958  0.06912649  0.77921213     0.29700
H1236       H  0.92348606  0.22212008  0.88878072     0.30000
C1237       C  0.49918873  0.12015114  0.85370771     0.79200
N1238       N  0.96873497  0.12494932  0.83933145    -0.79100
C1239       C  0.97536091  0.16072097  0.82817394     0.81600
N1240       N  0.51214119  0.19129160  0.83215950    -0.79100
C1241       C  0.54294976  0.18699974  0.84390711     0.81700
N1242       N  0.53684195  0.15134079  0.85467372    -0.80800
Zr1243     Zr  0.67865059  0.27601747  0.79706923     2.17500
O1244       O  0.68765063  0.24686796  0.87052511    -0.52400
O1245       O  0.66113098  0.21979753  0.74928634    -0.75600
O1246       O  0.61414632  0.22223657  0.82874275    -0.82400
O1247       O  0.78639919  0.36197913  0.79484303    -0.84100
O1248       O  0.57993459  0.25256623  0.83674506    -0.79700
O1249       O  0.74959245  0.29864137  0.81535352    -0.91400
O1250       O  0.62437271  0.21816678  0.68647593    -0.77300
O1251       O  0.62837804  0.26325346  0.74138033    -0.86800
O1252       O  0.71140097  0.29722128  0.71801644    -0.86500
O1253       O  0.64562490  0.30868981  0.82747794    -0.73300
O1254       O  0.71474763  0.34155525  0.79623624    -0.85400
Zr1255     Zr  0.67377235  0.38634891  0.69551322     2.26400
Zr1256     Zr  0.59649974  0.29644328  0.76741174     2.06300
Zr1257     Zr  0.75332432  0.36470700  0.72514866     2.10000
Zr1258     Zr  0.66030386  0.28546509  0.66289536     1.78800
O1259       O  0.81932443  0.42073218  0.73151885    -0.94200
O1260       O  0.60326789  0.25785066  0.61186005    -0.42000
O1261       O  0.70529261  0.35276655  0.66663161    -0.78600
O1262       O  0.62781262  0.31937742  0.68734869    -0.97300
O1263       O  0.64045135  0.36161539  0.77272401    -0.90600
O1264       O  0.72386436  0.40060438  0.75209353    -0.93500
C1265       C  0.63694498  0.20217427  0.71540735     1.00300
C1266       C  0.78226988  0.33176287  0.81515891     1.13200
C1267       C  0.58175533  0.22218658  0.83804748     1.04000
O1268       O  0.54500333  0.24416271  0.72412168    -0.95600
O1269       O  0.57300814  0.33828454  0.73688672    -0.91400
O1270       O  0.61416131  0.38733794  0.68321380    -0.84500
C1271       C  0.58093207  0.36658643  0.70693233     1.10600
O1272       O  0.73182832  0.38291609  0.89562078    -0.97600
Zr1273     Zr  0.68872648  0.37604778  0.82956816     1.88900
O1274       O  0.66311262  0.42945690  0.74546854    -0.74300
O1275       O  0.53878619  0.29049854  0.81280138    -0.53500
O1276       O  0.65106656  0.35885175  0.90805552    -0.98200
O1277       O  0.73522166  0.44373456  0.84093255    -0.55400
O1278       O  0.64695814  0.40445099  0.82315926    -0.74800
C1279       C  0.64804586  0.42693714  0.78888141     0.97600
O1280       O  0.66970668  0.40614775  0.61235230    -0.63600
O1281       O  0.79051437  0.33923619  0.68367502    -0.58400
O1282       O  0.73858115  0.43784658  0.66546676    -0.95100
O1283       O  0.77668709  0.41088474  0.65798206    -0.93500
O1284       O  0.70387397  0.26568215  0.62505415    -0.93900
O1285       O  0.67411647  0.30369310  0.57614984    -0.92600
C1286       C  0.77095627  0.43880984  0.65234987     1.16400
H1287       H  0.72568185  0.28427439  0.71020267     0.32400
H1288       H  0.60828650  0.31603448  0.66432249     0.43200
H1289       H  0.74335584  0.42744317  0.75257158     0.36700
H1290       H  0.63646740  0.30062791  0.86099600     0.33200
H1291       H  0.60351048  0.23602277  0.59712317     0.25000
H1292       H  0.51889300  0.26285577  0.81471786     0.30900
H1293       H  0.65535964  0.38330842  0.92011913     0.36900
H1294       H  0.68582329  0.23906110  0.61619571     0.31300
H1295       H  0.80394174  0.35678088  0.65470948     0.30200
H1296       H  0.83766276  0.41563309  0.71177396     0.31900
H1297       H  0.72526595  0.44916086  0.87152088     0.30800
H1298       H  0.67425896  0.32803314  0.57291428     0.34800
H1299       H  0.69248916  0.40737844  0.59369023     0.27600
H1300       H  0.67584022  0.21950288  0.86385049     0.31800
H1301       H  0.72862155  0.39923862  0.91926567     0.34700
H1302       H  0.81234155  0.34415227  0.70509449     0.27300
H1303       H  0.64615926  0.38374095  0.59986359     0.40100
H1304       H  0.54651333  0.22147921  0.73443543     0.30200
H1305       H  0.57972978  0.24589271  0.63509254     0.37800
H1306       H  0.72988193  0.45786039  0.81534574     0.29700
H1307       H  0.54717865  0.29662463  0.84655970     0.29700
H1308       H  0.66935301  0.24740114  0.89589519     0.30000
C1309       C  0.87353058  0.01464554  0.61900821     0.79200
N1310       N  0.84142723  0.47957640  0.62625376    -0.79100
C1311       C  0.80468180  0.47526768  0.63491141     0.81600
N1312       N  0.80012156  0.00564660  0.63787674    -0.79100
C1313       C  0.83191243  0.04094541  0.63122544     0.81700
N1314       N  0.86865392  0.04542861  0.62138251    -0.80800
C1315       C  0.60732526  0.48271673  0.84679483     0.79200
N1316       N  0.63786701  0.01830472  0.83127590    -0.79100
C1317       C  0.66699492  0.02166060  0.79898648     0.81600
N1318       N  0.66559707  0.49062009  0.78286363    -0.79100
C1319       C  0.63820395  0.45582110  0.80045555     0.81700
N1320       N  0.60889929  0.45124085  0.83350486    -0.80800
C1321       C  0.60373919  0.10822942  0.65974110     0.79200
N1322       N  0.63662319  0.10579031  0.66944503    -0.79100
C1323       C  0.66431084  0.13143558  0.69866362     0.81600
N1324       N  0.65925422  0.15876976  0.71711174    -0.79100
C1325       C  0.62959208  0.16399947  0.70510027     0.81700
N1326       N  0.60164487  0.13909157  0.67512693    -0.80800
C1327       C  0.88652888  0.37157955  0.85436780     0.79200
N1328       N  0.85154074  0.36959507  0.84336501    -0.79100
C1329       C  0.81853457  0.33508810  0.83457942     0.81600
N1330       N  0.82074541  0.30328243  0.83666402    -0.79100
C1331       C  0.85490825  0.30449072  0.84606781     0.81700
N1332       N  0.88785327  0.33854300  0.85513519    -0.80800
C1333       C  0.51494553  0.39862920  0.65527082     0.79200
N1334       N  0.54939828  0.40013436  0.66767772    -0.79100
C1335       C  0.54740397  0.37173839  0.69744299     0.81600
N1336       N  0.51192805  0.34212718  0.71280072    -0.79100
C1337       C  0.97769038  0.33786382  0.69734179     0.81700
N1338       N  0.97875006  0.36624224  0.66830923    -0.80800
Zr1339     Zr  0.98820830  0.49769153  0.59633349     2.17500
O1340       O  0.96922563  0.48871597  0.68324589    -0.52400
O1341       O  0.54270597  0.05330483  0.63622493    -0.75600
O1342       O  0.99870302  0.44681338  0.63358459    -0.82400
O1343       O  0.93413064  0.04773444  0.57269723    -0.84100
O1344       O  0.53342764  0.43204525  0.57821380    -0.79700
O1345       O  0.92379355  0.99596486  0.61589238    -0.91400
O1346       O  0.58975227  0.09331917  0.57854038    -0.77300
O1347       O  0.54843220  0.01525564  0.55003915    -0.86800
O1348       O  0.50435250  0.05367622  0.54690800    -0.86500
O1349       O  0.97445806  0.44460697  0.54617152    -0.73300
O1350       O  0.93440893  0.48061420  0.54314170    -0.85400
Zr1351     Zr  0.49632178  0.99962338  0.89629250     2.26400
Zr1352     Zr  0.53518029  0.46296553  0.49967113     2.06300
Zr1353     Zr  0.95128116  0.03572139  0.99211917     2.10000
Zr1354     Zr  0.56382750  0.07036667  0.50034638     1.78800
O1355       O  0.88058299  0.00311788  0.97738913    -0.94200
O1356       O  0.63162887  0.08218752  0.49606951    -0.42000
O1357       O  0.51065928  0.05161200  0.94758519    -0.78600
O1358       O  0.55129374  0.01874738  0.94993186    -0.97300
O1359       O  0.98123233  0.44534717  0.94760078    -0.90600
O1360       O  0.93593852  0.48332526  0.94202036    -0.93500
C1361       C  0.57659194  0.08331147  0.62285221     1.00300
C1362       C  0.91300982  0.02010979  0.60327910     1.13200
C1363       C  0.51657355  0.42837665  0.62073308     1.04000
O1364       O  0.60339004  0.48247246  0.51744065    -0.95600
O1365       O  0.57171275  0.46534131  0.92427837    -0.91400
O1366       O  0.55231428  0.49173205  0.86485989    -0.84500
C1367       C  0.57447792  0.47886992  0.88041624     1.10600
O1368       O  0.87288601  0.40033454  0.56298229    -0.97600
Zr1369     Zr  0.92123863  0.42880525  0.99368178     1.88900
O1370       O  0.93706383  0.44004493  0.86411588    -0.74300
O1371       O  0.51279120  0.39685324  0.98413993    -0.53500
O1372       O  0.90500739  0.36430103  0.01834017    -0.98200
O1373       O  0.85639308  0.41228383  0.96389327    -0.55400
O1374       O  0.92109435  0.39521653  0.92397329    -0.74800
C1375       C  0.91729338  0.40460631  0.88105533     0.97600
O1376       O  0.50379769  0.01085243  0.80794617    -0.63600
O1377       O  0.94358817  0.09155418  0.99004586    -0.58400
O1378       O  0.50135833  0.06127094  0.86546241    -0.95100
O1379       O  0.96973664  0.07805124  0.92050014    -0.93500
O1380       O  0.56600989  0.13121531  0.50164962    -0.93900
O1381       O  0.60495633  0.11438548  0.93333217    -0.92600
C1382       C  0.98908956  0.08342122  0.87971861     1.16400
H1383       H  0.50823060  0.07455884  0.56650018     0.32400
H1384       H  0.57680183  0.02916506  0.93244114     0.43200
H1385       H  0.91514047  0.47877524  0.92043970     0.36700
H1386       H  0.96451200  0.42058678  0.56424324     0.33200
H1387       H  0.64839576  0.10896904  0.50518792     0.25000
H1388       H  0.53351205  0.39235552  0.99698553     0.30900
H1389       H  0.88064519  0.34719178  0.00140438     0.36900
H1390       H  0.59032171  0.14824810  0.51869734     0.31300
H1391       H  0.91758509  0.08330423  0.00723112     0.30200
H1392       H  0.86750720  0.98492965  0.00588610     0.31900
H1393       H  0.84057109  0.38404102  0.96671833     0.30800
H1394       H  0.58726011  0.10710260  0.90571930     0.34800
H1395       H  0.53212502  0.03059172  0.80095140     0.27600
H1396       H  0.99289834  0.49212125  0.69966337     0.31800
H1397       H  0.84941402  0.37739441  0.55141865     0.34700
H1398       H  0.96331436  0.10955902  0.51282788     0.27300
H1399       H  0.50126432  0.98730209  0.79498999     0.40100
H1400       H  0.60808307  0.49600339  0.54813515     0.30200
H1401       H  0.63250919  0.06681699  0.52398861     0.37800
H1402       H  0.86059871  0.41825694  0.92831221     0.29700
H1403       H  0.99058216  0.38184195  0.50425475     0.29700
H1404       H  0.94927082  0.46118969  0.68854710     0.30000
Zr1405     Zr  0.89656517  0.72141802  0.29349800     2.17500
O1406       O  0.92880615  0.74521194  0.36958058    -0.52400
O1407       O  0.94336658  0.78001598  0.24463370    -0.75600
O1408       O  0.94432327  0.69824283  0.31120978    -0.82400
O1409       O  0.82244310  0.73832190  0.33698495    -0.84100
O1410       O  0.92342949  0.64077307  0.27836041    -0.79700
O1411       O  0.88909694  0.77136308  0.32899466    -0.91400
O1412       O  0.91705568  0.78651447  0.17490148    -0.77300
O1413       O  0.90636113  0.70465418  0.21440549    -0.86800
O1414       O  0.86016240  0.73811207  0.23905855    -0.86500
O1415       O  0.86469642  0.65358656  0.30382518    -0.73300
O1416       O  0.82703784  0.68769859  0.32267134    -0.85400
Zr1417     Zr  0.77506846  0.61513138  0.19548004     2.26400
Zr1418     Zr  0.87617894  0.63692528  0.22447018     2.06300
Zr1419     Zr  0.79220102  0.70326066  0.26468956     2.10000
Zr1420     Zr  0.86927537  0.72079380  0.16047130     1.78800
O1421       O  0.74341022  0.70968307  0.31472464    -0.94200
O1422       O  0.92789267  0.73399768  0.11012133    -0.42000
O1423       O  0.80027520  0.68323927  0.18620555    -0.78600
O1424       O  0.84273739  0.65357976  0.16588878    -0.97300
O1425       O  0.80801869  0.59902646  0.25379549    -0.90600
O1426       O  0.76502481  0.63687265  0.27204508    -0.93500
C1427       C  0.94299504  0.79972573  0.20706906     1.00300
C1428       C  0.85596515  0.76957559  0.33852062     1.13200
C1429       C  0.94585782  0.66727132  0.30525254     1.04000
O1430       O  0.94037345  0.65906019  0.18171605    -0.95600
O1431       O  0.86199623  0.60333778  0.15266579    -0.91400
O1432       O  0.79501165  0.56962683  0.16332664    -0.84500
C1433       C  0.82880405  0.57351169  0.14787188     1.10600
O1434       O  0.82295252  0.61936035  0.40917837    -0.97600
Zr1435     Zr  0.79627524  0.61965156  0.33028832     1.88900
O1436       O  0.71839146  0.56379460  0.24357331    -0.74300
O1437       O  0.86478417  0.57301118  0.24242525    -0.53500
O1438       O  0.79436589  0.55999446  0.35004058    -0.97300
O1439       O  0.76256347  0.63360796  0.39569629    -0.55400
O1440       O  0.72608771  0.57251425  0.32496202    -0.74800
C1441       C  0.70534544  0.55604944  0.28858922     0.97600
O1442       O  0.75070751  0.59926836  0.11387130    -0.63600
O1443       O  0.79829157  0.75904319  0.22119685    -0.58400
O1444       O  0.71410100  0.61492478  0.18564685    -0.95100
O1445       O  0.72649607  0.66540057  0.23116970    -0.93500
O1446       O  0.84171052  0.75733677  0.12530787    -0.93900
O1447       O  0.85632797  0.70913618  0.07463370    -0.92600
C1448       C  0.70375639  0.63674736  0.20563599     1.16400
H1449       H  0.86797002  0.76468100  0.23994945     0.32400
H1450       H  0.84506845  0.64739592  0.13281837     0.43200
H1451       H  0.73770776  0.62693259  0.28279749     0.36700
H1452       H  0.87595211  0.64632104  0.32966375     0.33200
H1453       H  0.93448754  0.75700317  0.08953428     0.25000
H1454       H  0.88991789  0.57429557  0.23173509     0.30900
H1455       H  0.77291812  0.54067834  0.33087535     0.36900
H1456       H  0.86414216  0.77853285  0.10559644     0.31300
H1457       H  0.77242070  0.74948597  0.20618697     0.30200
H1458       H  0.73156909  0.71995395  0.29205539     0.31900
H1459       H  0.74174189  0.60836212  0.41000454     0.30800
H1460       H  0.82909423  0.68663106  0.07477561     0.34800
H1461       H  0.75198570  0.62265532  0.10025772     0.27600
H1462       H  0.95772443  0.75887613  0.36075663     0.31800
H1463       H  0.80062687  0.59834758  0.42925856     0.34700
H1464       H  0.79817536  0.77545149  0.24704548     0.27300
H1465       H  0.77187404  0.59793768  0.09477912     0.40100
H1466       H  0.93956818  0.67209750  0.15121971     0.30200
H1467       H  0.94970470  0.74309214  0.13281297     0.37800
H1468       H  0.74765315  0.64376854  0.37876404     0.29700
H1469       H  0.86340779  0.57003800  0.27844779     0.29700
H1470       H  0.92348857  0.72223043  0.38926200     0.30000
C1471       C  0.49912983  0.61998118  0.35323098     0.79200
N1472       N  0.96879536  0.62516533  0.33945550    -0.79100
C1473       C  0.97547699  0.66098075  0.32846812     0.81600
N1474       N  0.51191874  0.69109839  0.33204551    -0.79100
C1475       C  0.54276347  0.68685115  0.34366181     0.81700
N1476       N  0.53674705  0.65120847  0.35423758    -0.80800
Zr1477     Zr  0.67847258  0.77582751  0.29712237     2.17500
O1478       O  0.68725315  0.74642053  0.37049415    -0.52400
O1479       O  0.66100057  0.71970488  0.24929779    -0.75600
O1480       O  0.61391953  0.72212812  0.32861849    -0.82400
O1481       O  0.78606302  0.86160255  0.29529520    -0.84100
O1482       O  0.57959689  0.75239280  0.33624298    -0.79700
O1483       O  0.74929732  0.79829460  0.31592674    -0.91400
O1484       O  0.62445027  0.71806599  0.18621448    -0.77300
O1485       O  0.62842386  0.76318778  0.24116593    -0.86800
O1486       O  0.71123511  0.79689120  0.21807478    -0.86500
O1487       O  0.64537864  0.80851143  0.32724723    -0.73300
O1488       O  0.71468979  0.84132832  0.29636546    -0.85400
Zr1489     Zr  0.67367933  0.88611415  0.19536849     2.26400
Zr1490     Zr  0.59642031  0.79629664  0.26693651     2.06300
Zr1491     Zr  0.75323735  0.86433691  0.22528618     2.10000
Zr1492     Zr  0.66036087  0.78535297  0.16268765     1.78800
O1493       O  0.81934196  0.92014643  0.23180372    -0.94200
O1494       O  0.60337885  0.75774797  0.11154983    -0.42000
O1495       O  0.70530238  0.85258208  0.16670678    -0.78600
O1496       O  0.62774484  0.81921352  0.18689881    -0.97300
O1497       O  0.64035771  0.86141796  0.27259299    -0.90600
O1498       O  0.72377169  0.90027136  0.25197559    -0.93500
C1499       C  0.63690754  0.70209134  0.21535242     1.00300
C1500       C  0.78195297  0.83143430  0.31575004     1.13200
C1501       C  0.58150245  0.72205590  0.33773457     1.04000
O1502       O  0.54550616  0.74391929  0.22318239    -0.95600
O1503       O  0.57298624  0.83812827  0.23618992    -0.91400
O1504       O  0.61420874  0.88737594  0.18283969    -0.84500
C1505       C  0.58091764  0.86651042  0.20638399     1.10600
O1506       O  0.73165564  0.88285431  0.39571679    -0.97600
Zr1507     Zr  0.68864085  0.87584591  0.32947698     1.88900
O1508       O  0.66284443  0.92910055  0.24530909    -0.74300
O1509       O  0.53829210  0.79004077  0.31162729    -0.53500
O1510       O  0.65157536  0.85858855  0.40839343    -0.98200
O1511       O  0.73493897  0.94367593  0.34027269    -0.55400
O1512       O  0.64695773  0.90431703  0.32312921    -0.74800
C1513       C  0.64794280  0.92670414  0.28878202     0.97600
O1514       O  0.66970278  0.90589698  0.11215938    -0.63600
O1515       O  0.79020423  0.83854692  0.18402534    -0.58400
O1516       O  0.73841734  0.93747209  0.16513459    -0.95100
O1517       O  0.77677573  0.91069848  0.15828966    -0.93500
O1518       O  0.70397634  0.76572432  0.12462937    -0.93900
O1519       O  0.67542836  0.80419452  0.07617360    -0.92600
C1520       C  0.77084795  0.93847803  0.15222512     1.16400
H1521       H  0.72543241  0.78385470  0.21030320     0.32400
H1522       H  0.60825480  0.81589413  0.16381272     0.43200
H1523       H  0.74332479  0.92709366  0.25235018     0.36700
H1524       H  0.63608291  0.80041993  0.36072351     0.33200
H1525       H  0.60371223  0.73598378  0.09675200     0.25000
H1526       H  0.51876802  0.76231137  0.31432323     0.30900
H1527       H  0.65493814  0.88285625  0.41990484     0.36900
H1528       H  0.68612685  0.73872499  0.11711923     0.31300
H1529       H  0.80380295  0.85610340  0.15511837     0.30200
H1530       H  0.83763336  0.91486943  0.21226244     0.31900
H1531       H  0.72464008  0.94930149  0.37041468     0.30800
H1532       H  0.67611176  0.82879712  0.07302101     0.34800
H1533       H  0.69246958  0.90708023  0.09352065     0.27600
H1534       H  0.67508887  0.71900557  0.36389953     0.31800
H1535       H  0.72894233  0.89978107  0.41880557     0.34700
H1536       H  0.81190926  0.84328919  0.20557046     0.27300
H1537       H  0.64614290  0.88350157  0.09967161     0.40100
H1538       H  0.54749113  0.72141855  0.23306796     0.30200
H1539       H  0.57980758  0.74569601  0.13472821     0.37800
H1540       H  0.72989141  0.95764137  0.31415398     0.29700
H1541       H  0.54671659  0.79693140  0.34522802     0.29700
H1542       H  0.66920749  0.74725335  0.39596697     0.30000
C1543       C  0.87370158  0.51508548  0.11884978     0.79200
N1544       N  0.84122041  0.97926315  0.12585490    -0.79100
C1545       C  0.80446976  0.97491738  0.13459924     0.81600
N1546       N  0.80026180  0.50598222  0.13783352    -0.79100
C1547       C  0.83201258  0.54131025  0.13103823     0.81700
N1548       N  0.86876534  0.54583843  0.12110870    -0.80800
C1549       C  0.60736402  0.98272814  0.34629833     0.79200
N1550       N  0.63775434  0.51832929  0.33101834    -0.79100
C1551       C  0.66694528  0.52173072  0.29879885     0.81600
N1552       N  0.66588838  0.99046163  0.28294685    -0.79100
C1553       C  0.63828031  0.95569026  0.30032964     0.81700
N1554       N  0.60885197  0.95118758  0.33310566    -0.80800
C1555       C  0.60374075  0.60808865  0.16014619     0.79200
N1556       N  0.63660141  0.60564089  0.16998435    -0.79100
C1557       C  0.66427200  0.63134986  0.19917199     0.81600
N1558       N  0.65919988  0.65871614  0.21744701    -0.79100
C1559       C  0.62956141  0.66392588  0.20526655     0.81700
N1560       N  0.60165495  0.63898476  0.17532677    -0.80800
C1561       C  0.88631263  0.87162423  0.35481493     0.79200
N1562       N  0.85118662  0.86945922  0.34406505    -0.79100
C1563       C  0.81827159  0.83488081  0.33523745     0.81600
N1564       N  0.82071779  0.80319275  0.33707741    -0.79100
C1565       C  0.85501646  0.80459854  0.34626328     0.81700
N1566       N  0.88786331  0.83871625  0.35531808    -0.80800
C1567       C  0.51465772  0.89854416  0.15538714     0.79200
N1568       N  0.54918972  0.90004858  0.16743979    -0.79100
C1569       C  0.54733190  0.87161640  0.19699579     0.81600
N1570       N  0.51191380  0.84199014  0.21248683    -0.79100
C1571       C  0.97761703  0.83820302  0.19809112     0.81700
N1572       N  0.97865748  0.86644447  0.16877060    -0.80800
Zr1573     Zr  0.98816209  0.99769905  0.09616995     2.17500
O1574       O  0.96931133  0.98876640  0.18312319    -0.52400
O1575       O  0.54277995  0.55319693  0.13664781    -0.75600
O1576       O  0.99853398  0.94681488  0.13351761    -0.82400
O1577       O  0.93427666  0.54808733  0.07247378    -0.84100
O1578       O  0.53337349  0.93229424  0.07860936    -0.79700
O1579       O  0.92394724  0.49640719  0.11590359    -0.91400
O1580       O  0.58973933  0.59331929  0.07895764    -0.77300
O1581       O  0.54851559  0.51531181  0.05046565    -0.86800
O1582       O  0.50433626  0.55376008  0.04717825    -0.86500
O1583       O  0.97456799  0.94465783  0.04595456    -0.73300
O1584       O  0.93436387  0.98057590  0.04294466    -0.85400
Zr1585     Zr  0.49628500  0.49957143  0.39623650     2.26400
Zr1586     Zr  0.53504074  0.96289521  0.99986129     2.06300
Zr1587     Zr  0.95116164  0.53570999  0.49230306     2.10000
Zr1588     Zr  0.56386225  0.57041967  0.00074548     1.78800
O1589       O  0.88030726  0.50268311  0.47834419    -0.94200
O1590       O  0.63216165  0.58355772  0.99630704    -0.42000
O1591       O  0.51086374  0.55179419  0.44726008    -0.78600
O1592       O  0.55138588  0.51880595  0.44970987    -0.97300
O1593       O  0.98137417  0.94534834  0.44767128    -0.90600
O1594       O  0.93595639  0.98335335  0.44218233    -0.93500
C1595       C  0.57663686  0.58320823  0.12326789     1.00300
C1596       C  0.91318647  0.52054859  0.10317238     1.13200
C1597       C  0.51613249  0.92825840  0.12095734     1.04000
O1598       O  0.60331678  0.98267808  0.01765517    -0.95600
O1599       O  0.57196794  0.96573155  0.42383489    -0.91400
O1600       O  0.55223579  0.99164353  0.36420405    -0.84500
C1601       C  0.57454902  0.97898506  0.37987199     1.10600
O1602       O  0.87475559  0.89986267  0.06432494    -0.97600
Zr1603     Zr  0.92137306  0.92883121  0.49374687     1.88900
O1604       O  0.93667032  0.94016706  0.36441438    -0.74300
O1605       O  0.51353034  0.89722254  0.48262879    -0.53500
O1606       O  0.90345609  0.86360987  0.51706039    -0.98200
O1607       O  0.85691389  0.91366116  0.46394413    -0.55400
O1608       O  0.92154761  0.89542597  0.42399450    -0.74800
C1609       C  0.91719466  0.90472514  0.38129889     0.97600
O1610       O  0.50308174  0.50967519  0.30774171    -0.63600
O1611       O  0.94385273  0.59176149  0.49016991    -0.58400
O1612       O  0.50106819  0.56098878  0.36493542    -0.95100
O1613       O  0.96934898  0.57794218  0.42055075    -0.93500
O1614       O  0.56579041  0.63112519  0.00270825    -0.93900
O1615       O  0.60537522  0.61422636  0.43262391    -0.92600
C1616       C  0.98891883  0.58344996  0.37989064     1.16400
H1617       H  0.50818815  0.57462688  0.06678632     0.32400
H1618       H  0.57686455  0.52918043  0.43216355     0.43200
H1619       H  0.91520844  0.97887456  0.42056820     0.36700
H1620       H  0.96457965  0.92060807  0.06397628     0.33200
H1621       H  0.64863611  0.61073186  0.00399729     0.25000
H1622       H  0.53455505  0.89298130  0.49500306     0.30900
H1623       H  0.87860030  0.84716343  0.50058850     0.36900
H1624       H  0.59122732  0.64871345  0.01731907     0.31300
H1625       H  0.91745968  0.58332637  0.50635845     0.30200
H1626       H  0.86744500  0.48502343  0.50735639     0.31900
H1627       H  0.84023491  0.88551364  0.46792743     0.30800
H1628       H  0.58830683  0.60560558  0.40440099     0.34800
H1629       H  0.53131883  0.52948278  0.30032163     0.27600
H1630       H  0.99277351  0.99157264  0.19947823     0.31800
H1631       H  0.84953041  0.87939445  0.05219933     0.34700
H1632       H  0.96375082  0.60983284  0.01152494     0.27300
H1633       H  0.50063198  0.48602213  0.29526186     0.40100
H1634       H  0.60822563  0.99693417  0.04775561     0.30200
H1635       H  0.63377565  0.56930405  0.02501878     0.37800
H1636       H  0.86093366  0.91866723  0.42818358     0.29700
H1637       H  0.99035671  0.88184062  0.00480765     0.29700
H1638       H  0.94888337  0.96136851  0.18831844     0.30000
Zr1639     Zr  0.89650289  0.72168028  0.79347328     2.17500
O1640       O  0.92836044  0.74498845  0.86991327    -0.52400
O1641       O  0.94322788  0.78029155  0.74468775    -0.75600
O1642       O  0.94430341  0.69859814  0.81148644    -0.82400
O1643       O  0.82204018  0.73847194  0.83673184    -0.84100
O1644       O  0.92307259  0.64082588  0.77938810    -0.79700
O1645       O  0.88874530  0.77145181  0.82899588    -0.91400
O1646       O  0.91728293  0.78646455  0.67441720    -0.77300
O1647       O  0.90638329  0.70486306  0.71442996    -0.86800
O1648       O  0.86018436  0.73830608  0.73876430    -0.86500
O1649       O  0.86470882  0.65390144  0.80385232    -0.73300
O1650       O  0.82698692  0.68799984  0.82244713    -0.85400
Zr1651     Zr  0.77513583  0.61517277  0.69528743     2.26400
Zr1652     Zr  0.87636213  0.63713603  0.72461452     2.06300
Zr1653     Zr  0.79221034  0.70343371  0.76428307     2.10000
Zr1654     Zr  0.86925389  0.72078172  0.66025823     1.78800
O1655       O  0.74355857  0.71045290  0.81374608    -0.94200
O1656       O  0.92721351  0.73309511  0.60921138    -0.42000
O1657       O  0.80026328  0.68326006  0.68590758    -0.78600
O1658       O  0.84285332  0.65362352  0.66594230    -0.97300
O1659       O  0.80813787  0.59928680  0.75376041    -0.90600
O1660       O  0.76507183  0.63703515  0.77174625    -0.93500
C1661       C  0.94303587  0.79980337  0.70679736     1.00300
C1662       C  0.85560584  0.76963940  0.83859714     1.13200
C1663       C  0.94563957  0.66747773  0.80601246     1.04000
O1664       O  0.94011553  0.65808170  0.68113016    -0.95600
O1665       O  0.86245697  0.60345357  0.65288275    -0.91400
O1666       O  0.79539367  0.56990737  0.66287148    -0.84500
C1667       C  0.82923921  0.57372384  0.64773648     1.10600
O1668       O  0.82256605  0.62040886  0.90956623    -0.97600
Zr1669     Zr  0.79630463  0.62000147  0.83017122     1.88900
O1670       O  0.71848213  0.56380899  0.74356047    -0.74300
O1671       O  0.86452089  0.57309261  0.74269683    -0.53500
O1672       O  0.79512345  0.56072973  0.85008832    -0.97300
O1673       O  0.76224908  0.63413100  0.89497943    -0.55400
O1674       O  0.72622605  0.57260972  0.82493600    -0.74800
C1675       C  0.70546309  0.55608268  0.78861051     0.97600
O1676       O  0.75110947  0.59933994  0.61351523    -0.63600
O1677       O  0.79853984  0.75907729  0.72012724    -0.58400
O1678       O  0.71419363  0.61509905  0.68537952    -0.95100
O1679       O  0.72644280  0.66544448  0.73110202    -0.93500
O1680       O  0.84185468  0.75733268  0.62464667    -0.93900
O1681       O  0.85580578  0.70895613  0.57456543    -0.92600
C1682       C  0.70377203  0.63684332  0.70546725     1.16400
H1683       H  0.86801078  0.76488933  0.73955490     0.32400
H1684       H  0.84526607  0.64739842  0.63291523     0.43200
H1685       H  0.73774790  0.62700167  0.78252356     0.36700
H1686       H  0.87581841  0.64669030  0.82991337     0.33200
H1687       H  0.93486234  0.75694771  0.58991480     0.25000
H1688       H  0.89002384  0.57453805  0.73366123     0.30900
H1689       H  0.77611932  0.54201000  0.82800567     0.36900
H1690       H  0.86424825  0.77827112  0.60458165     0.31300
H1691       H  0.77293868  0.74936935  0.70438396     0.30200
H1692       H  0.73272722  0.72177811  0.79111994     0.31900
H1693       H  0.74049732  0.60894774  0.90823684     0.30800
H1694       H  0.82843605  0.68663568  0.57494375     0.34800
H1695       H  0.75104970  0.62220932  0.60043670     0.27600
H1696       H  0.95731405  0.75870262  0.86130738     0.31800
H1697       H  0.80024909  0.59926119  0.92949291     0.34700
H1698       H  0.79782802  0.77537602  0.74575419     0.27300
H1699       H  0.77300782  0.59942998  0.59419181     0.40100
H1700       H  0.95885858  0.68337440  0.69347519     0.30200
H1701       H  0.94883201  0.74058719  0.63190894     0.37800
H1702       H  0.74854281  0.64547407  0.87778925     0.29700
H1703       H  0.86174087  0.56970443  0.77871295     0.29700
H1704       H  0.92295579  0.72189340  0.88940445     0.30000
C1705       C  0.49924905  0.62010046  0.85395523     0.79200
N1706       N  0.96846552  0.62539457  0.84054455    -0.79100
C1707       C  0.97525064  0.66120890  0.82930360     0.81600
N1708       N  0.51207756  0.69115587  0.83228620    -0.79100
C1709       C  0.54287420  0.68694314  0.84426408     0.81700
N1710       N  0.53684295  0.65133251  0.85510952    -0.80800
Zr1711     Zr  0.67833660  0.77589457  0.79734908     2.17500
O1712       O  0.68718121  0.74636753  0.87057284    -0.52400
O1713       O  0.66129181  0.72001692  0.74905242    -0.75600
O1714       O  0.61400062  0.72219621  0.82927135    -0.82400
O1715       O  0.78648635  0.86172290  0.79458603    -0.84100
O1716       O  0.57968434  0.75246193  0.83684558    -0.79700
O1717       O  0.74912787  0.79866735  0.81669769    -0.91400
O1718       O  0.62411627  0.71812781  0.68660152    -0.77300
O1719       O  0.62806279  0.76311923  0.74161433    -0.86800
O1720       O  0.71103308  0.79710811  0.71829911    -0.86500
O1721       O  0.64516892  0.80849551  0.82759569    -0.73300
O1722       O  0.71433115  0.84138820  0.79661585    -0.85400
Zr1723     Zr  0.67324132  0.88606892  0.69548765     2.26400
Zr1724     Zr  0.59607294  0.79625553  0.76745798     2.06300
Zr1725     Zr  0.75281771  0.86455683  0.72553453     2.10000
Zr1726     Zr  0.65994468  0.78536247  0.66307314     1.78800
O1727       O  0.81834313  0.92093150  0.73287847    -0.94200
O1728       O  0.60302256  0.75780276  0.61181445    -0.42000
O1729       O  0.70484256  0.85257310  0.66697767    -0.78600
O1730       O  0.62727522  0.81913077  0.68734297    -0.97300
O1731       O  0.63999298  0.86141130  0.77275637    -0.90600
O1732       O  0.72323653  0.90039488  0.75223209    -0.93500
C1733       C  0.63696658  0.70228726  0.71533644     1.00300
C1734       C  0.78196750  0.83169762  0.81599408     1.13200
C1735       C  0.58159484  0.72213056  0.83838405     1.04000
O1736       O  0.54498828  0.74433276  0.72330502    -0.95600
O1737       O  0.57257274  0.83827286  0.73745340    -0.91400
O1738       O  0.61346018  0.88660456  0.68272880    -0.84500
C1739       C  0.58041024  0.86627499  0.70697309     1.10600
O1740       O  0.73189968  0.88275995  0.89504716    -0.97600
Zr1741     Zr  0.68819273  0.87583328  0.82971941     1.88900
O1742       O  0.66247622  0.92916892  0.74514902    -0.74300
O1743       O  0.53816476  0.78969824  0.81307039    -0.53500
O1744       O  0.65065487  0.85867335  0.90830616    -0.98200
O1745       O  0.73450972  0.94344970  0.84160500    -0.55400
O1746       O  0.64652717  0.90433299  0.82295767    -0.74800
C1747       C  0.64755618  0.92674564  0.78860318     0.97600
O1748       O  0.66986987  0.90613805  0.61217998    -0.63600
O1749       O  0.79015125  0.83992877  0.68251857    -0.58400
O1750       O  0.73813642  0.93738923  0.66540880    -0.95100
O1751       O  0.77635288  0.91051986  0.65831080    -0.93500
O1752       O  0.70346096  0.76563498  0.62503771    -0.93900
O1753       O  0.67498789  0.80452656  0.57664301    -0.92600
C1754       C  0.77054733  0.93836125  0.65244903     1.16400
H1755       H  0.72546188  0.78431730  0.71040417     0.32400
H1756       H  0.60772338  0.81574065  0.66431650     0.43200
H1757       H  0.74268367  0.92724582  0.75272845     0.36700
H1758       H  0.63605852  0.80050499  0.86114146     0.33200
H1759       H  0.60345997  0.73613359  0.59687862     0.25000
H1760       H  0.51850943  0.76199804  0.81509924     0.30900
H1761       H  0.65454873  0.88307858  0.92003716     0.36900
H1762       H  0.68525772  0.73958655  0.61439658     0.31300
H1763       H  0.80577989  0.85934097  0.65592805     0.30200
H1764       H  0.83720368  0.91554399  0.71486752     0.31900
H1765       H  0.72424771  0.94874584  0.87204682     0.30800
H1766       H  0.67406901  0.82833342  0.57339458     0.34800
H1767       H  0.69256175  0.90706394  0.59367832     0.27600
H1768       H  0.67542434  0.71904898  0.86366829     0.31800
H1769       H  0.72792659  0.89808993  0.91956815     0.34700
H1770       H  0.81022807  0.84207971  0.70526862     0.27300
H1771       H  0.64621971  0.88391670  0.59956348     0.40100
H1772       H  0.54540751  0.72132455  0.73488415     0.30200
H1773       H  0.57943030  0.74561693  0.63495969     0.37800
H1774       H  0.72940001  0.95764721  0.81587437     0.29700
H1775       H  0.54660166  0.79598410  0.84678893     0.29700
H1776       H  0.66883409  0.74675325  0.89600287     0.30000
C1777       C  0.87395593  0.51508101  0.61875196     0.79200
N1778       N  0.84101372  0.97911692  0.62638002    -0.79100
C1779       C  0.80425239  0.97478194  0.63503496     0.81600
N1780       N  0.80058497  0.50617152  0.63763253    -0.79100
C1781       C  0.83239648  0.54147526  0.63086897     0.81700
N1782       N  0.86911782  0.54590159  0.62099989    -0.80800
C1783       C  0.60704816  0.98267253  0.84633033     0.79200
N1784       N  0.63801037  0.51836514  0.83149246    -0.79100
C1785       C  0.66703472  0.52175939  0.79895809     0.81600
N1786       N  0.66554737  0.99051807  0.78289833    -0.79100
C1787       C  0.63790715  0.95571721  0.80016352     0.81700
N1788       N  0.60849176  0.95115945  0.83296794    -0.80800
C1789       C  0.60391084  0.60843526  0.65963349     0.79200
N1790       N  0.63670815  0.60590477  0.66957162    -0.79100
C1791       C  0.66431039  0.63149684  0.69892915     0.81600
N1792       N  0.65924666  0.65885748  0.71726854    -0.79100
C1793       C  0.62967810  0.66415746  0.70502818     0.81700
N1794       N  0.60182155  0.63930723  0.67494309    -0.80800
C1795       C  0.88618700  0.87162726  0.85544158     0.79200
N1796       N  0.85111363  0.86960642  0.84472971    -0.79100
C1797       C  0.81811334  0.83506412  0.83592754     0.81600
N1798       N  0.82045254  0.80332293  0.83772005    -0.79100
C1799       C  0.85470138  0.80461303  0.84682971     0.81700
N1800       N  0.88761690  0.83866611  0.85586710    -0.80800
C1801       C  0.51457838  0.89847371  0.65520362     0.79200
N1802       N  0.54900480  0.89993226  0.66764097    -0.79100
C1803       C  0.54696025  0.87154038  0.69747278     0.81600
N1804       N  0.51148062  0.84198749  0.71284635    -0.79100
C1805       C  0.97771732  0.83817091  0.69769583     0.81700
N1806       N  0.97878918  0.86646310  0.66848396    -0.80800
Zr1807     Zr  0.98795142  0.99762334  0.59648022     2.17500
O1808       O  0.96901046  0.98860605  0.68340421    -0.52400
O1809       O  0.54298851  0.55345499  0.63613544    -0.75600
O1810       O  0.99867336  0.94680064  0.63346347    -0.82400
O1811       O  0.93450786  0.54798680  0.57235423    -0.84100
O1812       O  0.53347644  0.93233602  0.57836911    -0.79700
O1813       O  0.92416753  0.49630718  0.61576686    -0.91400
O1814       O  0.58986170  0.59359107  0.57838826    -0.77300
O1815       O  0.54865961  0.51521891  0.54989809    -0.86800
O1816       O  0.50459043  0.55372995  0.54670472    -0.86500
O1817       O  0.97426366  0.94462170  0.54614509    -0.73300
O1818       O  0.93420232  0.98062909  0.54322412    -0.85400
Zr1819     Zr  0.49645015  0.49965910  0.89667196     2.26400
Zr1820     Zr  0.53517324  0.96313688  0.49966664     2.06300
Zr1821     Zr  0.95094455  0.53571070  0.99248888     2.10000
Zr1822     Zr  0.56405591  0.57031912  0.50020278     1.78800
O1823       O  0.88006743  0.50278909  0.97861692    -0.94200
O1824       O  0.63219387  0.58303399  0.49659782    -0.42000
O1825       O  0.51069061  0.55173091  0.94781456    -0.78600
O1826       O  0.55144889  0.51893761  0.95029584    -0.97300
O1827       O  0.98171077  0.94532051  0.94757258    -0.90600
O1828       O  0.93617405  0.98319950  0.94193691    -0.93500
C1829       C  0.57678966  0.58352918  0.62272586     1.00300
C1830       C  0.91340533  0.52045252  0.60304128     1.13200
C1831       C  0.51626870  0.92831696  0.62075809     1.04000
O1832       O  0.60349224  0.98268836  0.51686129    -0.95600
O1833       O  0.57160215  0.96543386  0.92381165    -0.91400
O1834       O  0.55204935  0.99163508  0.86431217    -0.84500
C1835       C  0.57425733  0.97885273  0.87991475     1.10600
O1836       O  0.87397485  0.90082494  0.56412280    -0.97600
Zr1837     Zr  0.92165888  0.92872970  0.99359784     1.88900
O1838       O  0.93666052  0.94021148  0.86452574    -0.74300
O1839       O  0.51382200  0.89694947  0.98347835    -0.53500
O1840       O  0.90347019  0.86324678  0.01572809    -0.98200
O1841       O  0.85710876  0.91374724  0.96430462    -0.55400
O1842       O  0.92252748  0.89565995  0.92384678    -0.74800
C1843       C  0.91744436  0.90479877  0.88145635     0.97600
O1844       O  0.50338588  0.50992166  0.80821531    -0.63600
O1845       O  0.94395749  0.59192761  0.98939289    -0.58400
O1846       O  0.50159668  0.56136748  0.86594528    -0.95100
O1847       O  0.96910663  0.57808750  0.92110931    -0.93500
O1848       O  0.56621223  0.63114303  0.50157177    -0.93900
O1849       O  0.60444608  0.61510229  0.93339694    -0.92600
C1850       C  0.98870582  0.58363134  0.88050139     1.16400
H1851       H  0.50842674  0.57460945  0.56626698     0.32400
H1852       H  0.57695403  0.52930915  0.93281459     0.43200
H1853       H  0.91542694  0.97871400  0.92032413     0.36700
H1854       H  0.96432044  0.92058194  0.56418204     0.33200
H1855       H  0.64860868  0.60982031  0.50588747     0.25000
H1856       H  0.53330686  0.89200570  0.99920735     0.30900
H1857       H  0.87853191  0.84703797  0.99927635     0.36900
H1858       H  0.59188335  0.64884826  0.51561386     0.31300
H1859       H  0.91774797  0.58377502  0.00590985     0.30200
H1860       H  0.86722869  0.48492026  0.00745168     0.31900
H1861       H  0.84040325  0.88559823  0.96822522     0.30800
H1862       H  0.58785943  0.60559522  0.90484632     0.34800
H1863       H  0.53173892  0.52940711  0.80082012     0.27600
H1864       H  0.99264952  0.99187905  0.69977533     0.31800
H1865       H  0.84909943  0.87969903  0.55218000     0.34700
H1866       H  0.96335614  0.60944853  0.51273847     0.27300
H1867       H  0.50047021  0.48610797  0.79565893     0.40100
H1868       H  0.60808930  0.99559675  0.54803724     0.30200
H1869       H  0.63313900  0.56770375  0.52451550     0.37800
H1870       H  0.86100387  0.91879937  0.92855115     0.29700
H1871       H  0.99031874  0.88176223  0.50613181     0.29700
H1872       H  0.94896215  0.96110215  0.68865061     0.30000
loop_ 
_geom_bond_atom_site_label_1 
_geom_bond_atom_site_label_2 
_geom_bond_distance 
_geom_bond_site_symmetry_2 
_ccdc_geom_bond_type 
Zr1           O2   2.437       .  S
Zr1           O3   2.460       .  S
Zr1           O4   2.539       .  S
Zr1           O7   2.422       .  S
Zr1           O9   2.371       .  S
Zr1          O10   2.409       .  S
Zr1          O11   2.387       .  S
Zr1          O12   2.430       .  S
O2           H58   0.990       .  S
O2           H66   0.990       .  S
O3           C23   1.295       .  A
O4           C25   1.307       .  A
O5          Zr15   2.443       .  S
O5           C24   1.284       .  A
O6          Zr14   2.352       .  S
O6           C25   1.266       .  A
O7           C24   1.277       .  A
O8          Zr16   2.416       .  S
O8           C23   1.277       .  A
O9          Zr14   2.389       .  S
O9          Zr16   2.407       .  S
O10         Zr15   2.357       .  S
O10         Zr16   2.359       .  S
O10          H45   0.965       .  S
O11         Zr14   2.395       .  S
O11         Zr31   2.374       .  S
O11          H48   0.963       .  S
O12         Zr15   2.401       .  S
O12         Zr31   2.393       .  S
Zr13         O38   2.439       .  S
Zr13         O32   2.444       .  S
Zr13         O40   2.404       .  S
Zr13         O28   2.515       .  S
Zr13         O19   2.428       .  S
Zr13         O20   2.384       .  S
Zr13         O21   2.368       .  S
Zr13         O22   2.400       .  S
Zr14         O33   2.441       .  S
Zr14         O26   2.435       .  S
Zr14         O27   2.349       .  S
Zr14         O20   2.397       .  S
Zr14         O21   2.394       .  S
Zr15         O17   2.437       .  S
Zr15         O39   2.436       .  S
Zr15         O41   2.455       .  S
Zr15         O19   2.390       .  S
Zr15         O22   2.349       .  S
Zr16         O42   2.436       .  S
Zr16         O43   2.437       .  S
Zr16         O18   2.437       .  S
Zr16         O19   2.394       .  S
Zr16         O20   2.383       .  S
O17          H54   0.990       .  S
O18          H49   0.991       .  S
O18          H63   0.990       .  S
O20          H46   0.963       .  S
O21         Zr31   2.399       .  S
O22         Zr31   2.343       .  S
O22          H47   0.961       .  S
C23         C167   1.465       .  S
C24         C161   1.466       .  S
C25          C69   1.468       .  S
O26          H62   0.990       .  S
O27          C29   1.263       .  A
O28          C29   1.302       .  A
C29         C143   1.464       .  S
O30         Zr31   2.440       .  S
O30          H59   0.991       .  S
Zr31         O34   2.439       .  S
Zr31         O35   2.437       .  S
Zr31         O36   2.433       .  S
O32          C37   1.290       .  A
O33          H50   0.990       .  S
O33          H65   0.990       .  S
O34          H51   0.990       .  S
O35          H55   0.990       .  S
O35          H64   0.990       .  S
O36          C37   1.282       .  A
C37         C147   1.451       .  S
O38          H57   0.991       .  S
O38          H61   0.990       .  S
O39          H53   0.990       .  S
O39          H60   0.989       .  S
O40          C44   1.277       .  A
O41          C44   1.294       .  A
O42          H52   0.990       .  S
O43          H56   0.990       .  S
C44         C153   1.463       .  S
C67        C1148   1.492       .  S
C67          N72   1.372   1_655  A
C67        N1004   1.371       .  A
N68          C69   1.368       .  A
N68        C1003   1.370       .  A
C69        N1006   1.332       .  A
N70          C71   1.349       .  A
N70        C1005   1.332   1_455  A
C71          C97   1.462       .  S
C71          N72   1.369       .  A
Zr73         O74   2.440       .  S
Zr73         O75   2.461       .  S
Zr73         O76   2.457       .  S
Zr73         O79   2.511       .  S
Zr73         O81   2.383       .  S
Zr73         O82   2.386       .  S
Zr73         O83   2.421       .  S
Zr73         O84   2.298       .  S
O74         H130   0.991       .  S
O74         H138   0.990       .  S
O75          C95   1.296       .  A
O76          C97   1.281       .  A
O77         Zr87   2.378       .  S
O77          C96   1.268       .  A
O78         Zr86   2.409       .  S
O78          C97   1.275       .  A
O79          C96   1.303       .  A
O80         Zr88   2.416       .  S
O80          C95   1.274       .  A
O81         Zr86   2.365       .  S
O81         Zr88   2.365       .  S
O82         Zr87   2.397       .  S
O82         Zr88   2.405       .  S
O82         H117   0.966       .  S
O83         Zr86   2.438       .  S
O83        Zr103   2.384       .  S
O83         H120   0.962       .  S
O84         Zr87   2.288       .  S
O84        Zr103   2.303       .  S
Zr85        O110   2.440       .  S
Zr85        O104   2.441       .  S
Zr85        O112   2.422       .  S
Zr85        O100   2.389       .  S
Zr85         O91   2.391       .  S
Zr85         O92   2.408       .  S
Zr85         O93   2.362       .  S
Zr85         O94   2.385       .  S
Zr86        O105   2.437       .  S
Zr86         O98   2.437       .  S
Zr86         O99   2.453       .  S
Zr86         O92   2.399       .  S
Zr86         O93   2.328       .  S
Zr87         O89   2.441       .  S
Zr87        O111   2.443       .  S
Zr87        O113   2.394       .  S
Zr87         O91   2.379       .  S
Zr87         O94   2.392       .  S
Zr88        O114   2.437       .  S
Zr88        O115   2.436       .  S
Zr88         O90   2.438       .  S
Zr88         O91   2.395       .  S
Zr88         O92   2.397       .  S
O89         H126   0.991       .  S
O90         H121   0.991       .  S
O90         H135   0.989       .  S
O92         H118   0.966       .  S
O93        Zr103   2.338       .  S
O94        Zr103   2.389       .  S
O94         H119   0.965       .  S
C95         C155   1.468       .  S
C96         C159   1.473       .  S
O98         H134   0.990       .  S
O99         C101   1.293       .  A
O100        C101   1.274       .  A
C101        C165   1.460       .  S
O102       Zr103   2.443       .  S
O102        H131   0.991       .  S
Zr103       O106   2.442       .  S
Zr103       O107   2.447       .  S
Zr103       O108   2.441       .  S
O104        C109   1.290       .  A
O105        H122   0.989       .  S
O105        H137   0.990       .  S
O106        H123   0.991       .  S
O107        H127   0.991       .  S
O107        H136   0.990       .  S
O108        C109   1.281       .  A
C109        C149   1.449       .  S
O110        H129   0.990       .  S
O110        H133   0.991       .  S
O111        H125   0.990       .  S
O111        H132   0.990       .  S
O112        C116   1.285       .  A
O113        C116   1.273       .  A
O114        H124   0.990       .  S
O115        H128   0.990       .  S
C116        C141   1.450       .  S
C139        C192   1.488       .  S
C139        N144   1.363       .  A
C139        N608   1.359   1_545  A
N140        C141   1.367       .  A
N140        C607   1.359       .  A
C141        N610   1.351       .  A
N142        C143   1.341       .  A
N142        C609   1.350   1_545  A
C143        N144   1.368       .  A
C145        C197   1.493       .  S
C145        N150   1.372       .  A
C145        N614   1.373       .  A
N146        C147   1.367       .  A
N146        C613   1.374   1_545  A
C147        N616   1.328   1_545  A
N148        C149   1.332       .  A
N148        C615   1.329       .  A
C149        N150   1.368       .  A
C151        C191   1.489       .  S
C151        N152   1.373       .  A
C151        N156   1.376       .  A
N152        C153   1.364       .  A
C153        N154   1.335       .  A
N154        C155   1.331       .  A
C155        N156   1.371       .  A
C157        C205   1.502       .  S
C157        N158   1.373       .  A
C157        N162   1.372       .  A
N158        C159   1.376       .  A
C159        N160   1.341       .  A
N160        C161   1.345       .  A
C161        N162   1.366       .  A
C163        C193   1.493       .  S
C163        N164   1.372       .  A
C163       N1104   1.375   1_455  A
N164        C165   1.367       .  A
C165        N166   1.337       .  A
N166       C1103   1.333   1_455  A
C167        N168   1.369       .  A
C167       N1102   1.333       .  A
N168       C1099   1.375       .  A
Zr169       O170   2.438       .  S
Zr169       O172   2.506       .  S
Zr169      O1575   2.501       .  S
Zr169       O643   2.511       .  S
Zr169       O179   2.426       .  S
Zr169       O180   2.412       .  S
Zr169      O1581   2.397       .  S
Zr169      O1582   2.404       .  S
O170        H226   0.990       .  S
O170        H234   0.991       .  S
O171      Zr1573   2.502   1_445  S
O171        C191   1.296       .  A
O172       C1129   1.299       .  A
O173       Zr417   2.409   1_554  S
O173        C192   1.270       .  A
O174       Zr182   2.451   1_554  S
O174        C193   1.288       .  A
O175       Zr637   2.512       .  S
O175        C192   1.296   1_565  A
O176       Zr184   2.412       .  S
O176        C191   1.278       .  A
O177       Zr184   2.382       .  S
O177      Zr1573   2.397   1_445  S
O177       Zr650   2.403   1_544  S
O178       Zr184   2.376       .  S
O178      Zr1573   2.404   1_445  S
O178      Zr1353   2.411   1_454  S
O178        H213   0.967       .  S
O179      Zr1118   2.406       .  S
O179       Zr433   2.380   1_554  S
O179        H216   0.964       .  S
O180       Zr885   2.385   1_554  S
O180       Zr433   2.382   1_554  S
Zr181       O206   2.438   1_665  S
Zr181       O208   2.537   1_665  S
Zr181      O1604   2.563       .  S
Zr181       O664   2.496   1_655  S
Zr181       O187   2.407   1_665  S
Zr181       O188   2.442   1_665  S
Zr181      O1593   2.387       .  S
Zr181      O1594   2.400       .  S
Zr182       O194   2.435   1_556  S
Zr182       O435   2.435       .  S
Zr182       O429   2.462       .  S
Zr182       O645   2.403   1_556  S
Zr182      O1115   2.406   1_456  S
Zr182       O890   2.401       .  S
Zr182      O1359   2.391   1_455  S
Zr183       O185   2.436       .  S
Zr183       O207   2.440       .  S
Zr183       O209   2.414       .  S
Zr183       O407   2.411       .  S
Zr183      O1348   2.412       .  S
Zr183       O882   2.385   1_545  S
Zr183      O1123   2.372       .  S
Zr183       O658   2.399   1_545  S
Zr184       O210   2.437       .  S
Zr184       O186   2.438   1_554  S
Zr184       O445   2.437   1_554  S
Zr184       O421   2.383   1_554  S
Zr184       O422   2.391   1_554  S
O185        H222   0.990   1_545  S
O186        H217   0.990   1_556  S
O186        H231   0.990   1_556  S
O187      Zr1119   2.370   1_455  S
O187       Zr418   2.381       .  S
O188       Zr884   2.401   1_545  S
O188       Zr418   2.390       .  S
O188        H214   0.965       .  S
O189       Zr199   2.387       .  S
O189      Zr1585   2.387       .  S
O189      Zr1352   2.390       .  S
O190       Zr199   2.400       .  S
O190      Zr1585   2.400       .  S
O190       Zr651   2.398       .  S
O190        H215   0.965       .  S
C193       O1108   1.299   1_455  A
O194        H230   0.990       .  S
O195       Zr416   2.460       .  S
O195        C197   1.290       .  A
O196       Zr649   2.495   1_455  S
O196        C197   1.297       .  A
O198       Zr433   2.442   1_554  S
O198        H227   0.990       .  S
Zr199       O202   2.439       .  S
Zr199       O203   2.446       .  S
Zr199       O432   2.442       .  S
Zr199       O204   2.380       .  S
Zr199       O413   2.379       .  S
Zr199       O414   2.381       .  S
O200      Zr1585   2.562       .  S
O200        C205   1.304       .  A
O201       Zr416   2.434       .  S
O201        H218   0.990       .  S
O201       H1403   0.990   1_455  S
O202        H219   0.991       .  S
O203        H223   0.990       .  S
O203        H232   0.989       .  S
O204        C205   1.267       .  A
O206        H225   0.990       .  S
O206        H229   0.990   1_545  S
O207        H221   0.990       .  S
O207        H462   0.991       .  S
O208       C1148   1.304   1_455  A
O209        C212   1.279       .  A
O210        H220   0.990       .  S
O211       Zr418   2.437       .  S
O211        H224   0.991       .  S
C212       O1144   1.303       .  A
C212       C1003   1.490       .  S
H228        O441   0.991   1_554  S
H233       O1371   0.990   1_554  S
Zr235       O236   2.437       .  S
Zr235       O237   2.462       .  S
Zr235       O238   2.539       .  S
Zr235       O241   2.420       .  S
Zr235       O243   2.371       .  S
Zr235       O244   2.409       .  S
Zr235       O245   2.386       .  S
Zr235       O246   2.430       .  S
O236        H292   0.990       .  S
O236        H300   0.990       .  S
O237        C257   1.296       .  A
O238        C259   1.307       .  A
O239       Zr249   2.446       .  S
O239        C258   1.285       .  A
O240       Zr248   2.356       .  S
O240        C259   1.267       .  A
O241        C258   1.276       .  A
O242       Zr250   2.414       .  S
O242        C257   1.277       .  A
O243       Zr248   2.389       .  S
O243       Zr250   2.407       .  S
O244       Zr249   2.357       .  S
O244       Zr250   2.361       .  S
O244        H279   0.965       .  S
O245       Zr248   2.394       .  S
O245       Zr265   2.374       .  S
O245        H282   0.963       .  S
O246       Zr249   2.401       .  S
O246       Zr265   2.393       .  S
Zr247       O272   2.439       .  S
Zr247       O266   2.446       .  S
Zr247       O274   2.405       .  S
Zr247       O262   2.517       .  S
Zr247       O253   2.429       .  S
Zr247       O254   2.384       .  S
Zr247       O255   2.367       .  S
Zr247       O256   2.400       .  S
Zr248       O267   2.441       .  S
Zr248       O260   2.435       .  S
Zr248       O261   2.349       .  S
Zr248       O254   2.398       .  S
Zr248       O255   2.395       .  S
Zr249       O251   2.437       .  S
Zr249       O273   2.436       .  S
Zr249       O275   2.457       .  S
Zr249       O253   2.393       .  S
Zr249       O256   2.350       .  S
Zr250       O276   2.437       .  S
Zr250       O277   2.438       .  S
Zr250       O252   2.437       .  S
Zr250       O253   2.394       .  S
Zr250       O254   2.382       .  S
O251        H288   0.990       .  S
O252        H283   0.991       .  S
O252        H297   0.990       .  S
O254        H280   0.963       .  S
O255       Zr265   2.399       .  S
O256       Zr265   2.344       .  S
O256        H281   0.961       .  S
C257        C401   1.465       .  S
C258        C395   1.466       .  S
C259        C303   1.470       .  S
O260        H296   0.990       .  S
O261        C263   1.263       .  A
O262        C263   1.302       .  A
C263        C377   1.465       .  S
O264       Zr265   2.439       .  S
O264        H293   0.991       .  S
Zr265       O268   2.439       .  S
Zr265       O269   2.437       .  S
Zr265       O270   2.431       .  S
O266        C271   1.290       .  A
O267        H284   0.990       .  S
O267        H299   0.990       .  S
O268        H285   0.990       .  S
O269        H289   0.990       .  S
O269        H298   0.990       .  S
O270        C271   1.282       .  A
C271        C381   1.451       .  S
O272        H291   0.991       .  S
O272        H295   0.990       .  S
O273        H287   0.990       .  S
O273        H294   0.989       .  S
O274        C278   1.277       .  A
O275        C278   1.294       .  A
O276        H286   0.990       .  S
O277        H290   0.990       .  S
C278        C387   1.463       .  S
C301       C1382   1.491       .  S
C301       N1238   1.370       .  A
C301        N306   1.372   1_655  A
N302       C1237   1.371       .  A
N302        C303   1.368       .  A
C303       N1240   1.333       .  A
N304       C1239   1.332   1_455  A
N304        C305   1.349       .  A
C305        C331   1.463       .  S
C305        N306   1.369       .  A
Zr307       O308   2.440       .  S
Zr307       O309   2.458       .  S
Zr307       O310   2.459       .  S
Zr307       O313   2.514       .  S
Zr307       O315   2.384       .  S
Zr307       O316   2.386       .  S
Zr307       O317   2.421       .  S
Zr307       O318   2.297       .  S
O308        H364   0.991       .  S
O308        H372   0.990       .  S
O309        C329   1.296       .  A
O310        C331   1.281       .  A
O311       Zr321   2.378       .  S
O311        C330   1.269       .  A
O312       Zr320   2.409       .  S
O312        C331   1.274       .  A
O313        C330   1.304       .  A
O314       Zr322   2.417       .  S
O314        C329   1.274       .  A
O315       Zr320   2.364       .  S
O315       Zr322   2.365       .  S
O316       Zr321   2.397       .  S
O316       Zr322   2.405       .  S
O316        H351   0.966       .  S
O317       Zr320   2.439       .  S
O317       Zr337   2.384       .  S
O317        H354   0.962       .  S
O318       Zr321   2.288       .  S
O318       Zr337   2.303       .  S
Zr319       O344   2.440       .  S
Zr319       O338   2.441       .  S
Zr319       O346   2.421       .  S
Zr319       O334   2.386       .  S
Zr319       O325   2.390       .  S
Zr319       O326   2.406       .  S
Zr319       O327   2.362       .  S
Zr319       O328   2.385       .  S
Zr320       O339   2.436       .  S
Zr320       O332   2.437       .  S
Zr320       O333   2.453       .  S
Zr320       O326   2.398       .  S
Zr320       O327   2.328       .  S
Zr321       O323   2.441       .  S
Zr321       O345   2.443       .  S
Zr321       O347   2.394       .  S
Zr321       O325   2.379       .  S
Zr321       O328   2.392       .  S
Zr322       O348   2.437       .  S
Zr322       O349   2.436       .  S
Zr322       O324   2.439       .  S
Zr322       O325   2.395       .  S
Zr322       O326   2.396       .  S
O323        H360   0.991       .  S
O324        H355   0.991       .  S
O324        H369   0.989       .  S
O326        H352   0.966       .  S
O327       Zr337   2.338       .  S
O328       Zr337   2.389       .  S
O328        H353   0.965       .  S
C329        C389   1.467       .  S
C330        C393   1.474       .  S
O332        H368   0.990       .  S
O333        C335   1.293       .  A
O334        C335   1.274       .  A
C335        C399   1.459       .  S
O336       Zr337   2.443       .  S
O336        H365   0.991       .  S
Zr337       O340   2.442       .  S
Zr337       O341   2.447       .  S
Zr337       O342   2.443       .  S
O338        C343   1.290       .  A
O339        H356   0.989       .  S
O339        H371   0.990       .  S
O340        H357   0.991       .  S
O341        H361   0.991       .  S
O341        H370   0.990       .  S
O342        C343   1.281       .  A
C343        C383   1.450       .  S
O344        H363   0.990       .  S
O344        H367   0.991       .  S
O345        H359   0.990       .  S
O345        H366   0.990       .  S
O346        C350   1.284       .  A
O347        C350   1.273       .  A
O348        H358   0.990       .  S
O349        H362   0.990       .  S
C350        C375   1.450       .  S
C373        C426   1.489       .  S
C373        N842   1.359   1_545  A
C373        N378   1.363       .  A
N374        C841   1.359       .  A
N374        C375   1.367       .  A
C375        N844   1.351       .  A
N376        C843   1.350   1_545  A
N376        C377   1.342       .  A
C377        N378   1.368       .  A
C379        C431   1.495       .  S
C379        N848   1.374       .  A
C379        N384   1.373       .  A
N380        C847   1.373   1_545  A
N380        C381   1.367       .  A
C381        N850   1.329   1_545  A
N382        C849   1.329       .  A
N382        C383   1.332       .  A
C383        N384   1.369       .  A
C385        C425   1.489       .  S
C385        N386   1.373       .  A
C385        N390   1.376       .  A
N386        C387   1.364       .  A
C387        N388   1.335       .  A
N388        C389   1.331       .  A
C389        N390   1.371       .  A
C391        C439   1.505       .  S
C391        N392   1.373       .  A
C391        N396   1.372       .  A
N392        C393   1.377       .  A
C393        N394   1.341       .  A
N394        C395   1.345       .  A
C395        N396   1.367       .  A
C397        C427   1.494       .  S
C397        N398   1.372       .  A
C397       N1338   1.375   1_455  A
N398        C399   1.366       .  A
C399        N400   1.337       .  A
N400       C1337   1.333   1_455  A
C401       N1336   1.333       .  A
C401        N402   1.369       .  A
N402       C1333   1.375       .  A
Zr403       O404   2.438       .  S
Zr403      O1809   2.502       .  S
Zr403       O406   2.509       .  S
Zr403       O877   2.512       .  S
Zr403      O1815   2.396       .  S
Zr403      O1816   2.403       .  S
Zr403       O413   2.427       .  S
Zr403       O414   2.412       .  S
O404        H460   0.990       .  S
O404        H468   0.990       .  S
O405      Zr1807   2.503   1_445  S
O405        C425   1.296       .  A
O406       C1363   1.299       .  A
O407        C426   1.270       .  A
O408       Zr416   2.453       .  S
O408        C427   1.288       .  A
O409       Zr871   2.510       .  S
O409        C426   1.295   1_565  A
O410       Zr418   2.411       .  S
O410        C425   1.277       .  A
O411      Zr1807   2.396   1_445  S
O411       Zr884   2.402   1_545  S
O411       Zr418   2.382       .  S
O412      Zr1807   2.403   1_445  S
O412      Zr1119   2.411   1_455  S
O412       Zr418   2.375       .  S
O412        H447   0.967       .  S
O413      Zr1352   2.406       .  S
O413        H450   0.964       .  S
O414       Zr651   2.386       .  S
Zr415       O440   2.438   1_665  S
Zr415      O1838   2.562       .  S
Zr415       O442   2.534   1_665  S
Zr415       O898   2.494   1_655  S
Zr415       O421   2.408   1_665  S
Zr415       O422   2.443   1_665  S
Zr415      O1827   2.387       .  S
Zr415      O1828   2.400       .  S
Zr416       O428   2.435       .  S
Zr416       O879   2.402       .  S
Zr416      O1349   2.407   1_455  S
Zr416       O656   2.402       .  S
Zr416      O1125   2.391   1_455  S
Zr417       O419   2.436       .  S
Zr417       O441   2.439       .  S
Zr417       O443   2.413       .  S
Zr417      O1114   2.411   1_556  S
Zr417       O648   2.386   1_546  S
Zr417      O1357   2.370       .  S
Zr417       O892   2.398   1_545  S
Zr418       O444   2.436       .  S
Zr418       O420   2.438       .  S
O419        H456   0.990   1_546  S
O420        H451   0.990       .  S
O420        H465   0.990       .  S
O421      Zr1353   2.370   1_455  S
O422       Zr650   2.402   1_545  S
O422        H448   0.965       .  S
O423      Zr1819   2.386       .  S
O423      Zr1118   2.390   1_556  S
O423       Zr433   2.388       .  S
O424      Zr1819   2.399       .  S
O424       Zr885   2.397       .  S
O424       Zr433   2.399       .  S
O424        H449   0.965       .  S
C427       O1342   1.299   1_455  A
O428        H464   0.990       .  S
O429        C431   1.290       .  A
O430       Zr883   2.497   1_455  S
O430        C431   1.297       .  A
O432        H461   0.990       .  S
Zr433       O436   2.438   1_556  S
Zr433       O437   2.447       .  S
Zr433       O438   2.380       .  S
O434      Zr1819   2.565       .  S
O434        C439   1.305       .  A
O435        H452   0.990       .  S
O435       H1169   0.990   1_456  S
O436        H453   0.991       .  S
O437        H457   0.990       .  S
O437        H466   0.989       .  S
O438        C439   1.266       .  A
O440        H459   0.990       .  S
O440        H463   0.990   1_545  S
O441        H455   0.990   1_556  S
O442       C1382   1.303   1_455  A
O443        C446   1.279       .  A
O444        H454   0.990       .  S
O445        H458   0.991       .  S
C446       O1378   1.304       .  A
C446       C1237   1.492       .  S
H467       O1137   0.990       .  S
Zr469       O470   2.438       .  S
Zr469       O471   2.463       .  S
Zr469       O472   2.538       .  S
Zr469       O475   2.421       .  S
Zr469       O477   2.371       .  S
Zr469       O478   2.409       .  S
Zr469       O479   2.386       .  S
Zr469       O480   2.431       .  S
O470        H526   0.990       .  S
O470        H534   0.990       .  S
O471        C491   1.296       .  A
O472        C493   1.307       .  A
O473       Zr483   2.445       .  S
O473        C492   1.285       .  A
O474       Zr482   2.353       .  S
O474        C493   1.266       .  A
O475        C492   1.277       .  A
O476       Zr484   2.412       .  S
O476        C491   1.276       .  A
O477       Zr482   2.389       .  S
O477       Zr484   2.407       .  S
O478       Zr483   2.356       .  S
O478       Zr484   2.360       .  S
O478        H513   0.965       .  S
O479       Zr482   2.394       .  S
O479       Zr499   2.374       .  S
O479        H516   0.963       .  S
O480       Zr483   2.401       .  S
O480       Zr499   2.394       .  S
Zr481       O506   2.439       .  S
Zr481       O500   2.444       .  S
Zr481       O508   2.404       .  S
Zr481       O496   2.516       .  S
Zr481       O487   2.428       .  S
Zr481       O488   2.384       .  S
Zr481       O489   2.367       .  S
Zr481       O490   2.399       .  S
Zr482       O501   2.440       .  S
Zr482       O494   2.435       .  S
Zr482       O495   2.349       .  S
Zr482       O488   2.397       .  S
Zr482       O489   2.394       .  S
Zr483       O485   2.437       .  S
Zr483       O507   2.436       .  S
Zr483       O509   2.457       .  S
Zr483       O487   2.392       .  S
Zr483       O490   2.348       .  S
Zr484       O510   2.436       .  S
Zr484       O511   2.437       .  S
Zr484       O486   2.437       .  S
Zr484       O487   2.394       .  S
Zr484       O488   2.381       .  S
O485        H522   0.990       .  S
O486        H517   0.991       .  S
O486        H531   0.990       .  S
O488        H514   0.963       .  S
O489       Zr499   2.399       .  S
O490       Zr499   2.343       .  S
O490        H515   0.961       .  S
C491        C635   1.464       .  S
C492        C629   1.466       .  S
C493        C537   1.469       .  S
O494        H530   0.990       .  S
O495        C497   1.263       .  A
O496        C497   1.302       .  A
C497        C611   1.464       .  S
O498       Zr499   2.440       .  S
O498        H527   0.991       .  S
Zr499       O502   2.439       .  S
Zr499       O503   2.437       .  S
Zr499       O504   2.430       .  S
O500        C505   1.290       .  A
O501        H518   0.990       .  S
O501        H533   0.990       .  S
O502        H519   0.990       .  S
O503        H523   0.990       .  S
O503        H532   0.990       .  S
O504        C505   1.281       .  A
C505        C615   1.450       .  S
O506        H525   0.991       .  S
O506        H529   0.990       .  S
O507        H521   0.990       .  S
O507        H528   0.989       .  S
O508        C512   1.277       .  A
O509        C512   1.295       .  A
O510        H520   0.990       .  S
O511        H524   0.990       .  S
C512        C621   1.463       .  S
C535       C1616   1.492       .  S
C535       N1472   1.370       .  A
C535        N540   1.373   1_655  A
N536       C1471   1.371       .  A
N536        C537   1.368       .  A
C537       N1474   1.332       .  A
N538       C1473   1.332   1_455  A
N538        C539   1.349       .  A
C539        C565   1.462       .  S
C539        N540   1.369       .  A
Zr541       O542   2.441       .  S
Zr541       O543   2.462       .  S
Zr541       O544   2.457       .  S
Zr541       O547   2.514       .  S
Zr541       O549   2.384       .  S
Zr541       O550   2.386       .  S
Zr541       O551   2.422       .  S
Zr541       O552   2.297       .  S
O542        H598   0.991       .  S
O542        H606   0.990       .  S
O543        C563   1.296       .  A
O544        C565   1.281       .  A
O545       Zr555   2.379       .  S
O545        C564   1.268       .  A
O546       Zr554   2.409       .  S
O546        C565   1.275       .  A
O547        C564   1.304       .  A
O548       Zr556   2.416       .  S
O548        C563   1.274       .  A
O549       Zr554   2.365       .  S
O549       Zr556   2.365       .  S
O550       Zr555   2.397       .  S
O550       Zr556   2.406       .  S
O550        H585   0.966       .  S
O551       Zr554   2.438       .  S
O551       Zr571   2.384       .  S
O551        H588   0.962       .  S
O552       Zr555   2.287       .  S
O552       Zr571   2.302       .  S
Zr553       O578   2.441       .  S
Zr553       O572   2.440       .  S
Zr553       O580   2.418       .  S
Zr553       O568   2.386       .  S
Zr553       O559   2.390       .  S
Zr553       O560   2.407       .  S
Zr553       O561   2.361       .  S
Zr553       O562   2.386       .  S
Zr554       O573   2.436       .  S
Zr554       O566   2.436       .  S
Zr554       O567   2.454       .  S
Zr554       O560   2.399       .  S
Zr554       O561   2.327       .  S
Zr555       O557   2.440       .  S
Zr555       O579   2.442       .  S
Zr555       O581   2.392       .  S
Zr555       O559   2.379       .  S
Zr555       O562   2.392       .  S
Zr556       O582   2.437       .  S
Zr556       O583   2.436       .  S
Zr556       O558   2.439       .  S
Zr556       O559   2.394       .  S
Zr556       O560   2.398       .  S
O557        H594   0.990       .  S
O558        H589   0.991       .  S
O558        H603   0.989       .  S
O560        H586   0.966       .  S
O561       Zr571   2.339       .  S
O562       Zr571   2.389       .  S
O562        H587   0.964       .  S
C563        C623   1.468       .  S
C564        C627   1.475       .  S
O566        H602   0.990       .  S
O567        C569   1.293       .  A
O568        C569   1.274       .  A
C569        C633   1.459       .  S
O570       Zr571   2.443       .  S
O570        H599   0.991       .  S
Zr571       O574   2.442       .  S
Zr571       O575   2.448       .  S
Zr571       O576   2.440       .  S
O572        C577   1.289       .  A
O573        H590   0.989       .  S
O573        H605   0.990       .  S
O574        H591   0.991       .  S
O575        H595   0.991       .  S
O575        H604   0.990       .  S
O576        C577   1.281       .  A
C577        C617   1.448       .  S
O578        H597   0.990       .  S
O578        H601   0.991       .  S
O579        H593   0.990       .  S
O579        H600   0.990       .  S
O580        C584   1.284       .  A
O581        C584   1.272       .  A
O582        H592   0.990       .  S
O583        H596   0.990       .  S
C584        C609   1.448       .  S
C607        C660   1.489       .  S
C607        N612   1.363       .  A
N608        C609   1.366       .  A
N610        C611   1.342       .  A
C611        N612   1.368       .  A
C613        C665   1.493       .  S
C613        N618   1.372       .  A
N614        C615   1.367       .  A
N616        C617   1.332       .  A
C617        N618   1.368       .  A
C619        C659   1.490       .  S
C619        N620   1.373       .  A
C619        N624   1.377       .  A
N620        C621   1.365       .  A
C621        N622   1.334       .  A
N622        C623   1.331       .  A
C623        N624   1.371       .  A
C625        C673   1.504       .  S
C625        N626   1.373       .  A
C625        N630   1.372       .  A
N626        C627   1.377       .  A
C627        N628   1.341       .  A
N628        C629   1.345       .  A
C629        N630   1.366       .  A
C631        C661   1.494       .  S
C631        N632   1.371       .  A
C631       N1572   1.375   1_455  A
N632        C633   1.366       .  A
C633        N634   1.337       .  A
N634       C1571   1.333   1_455  A
C635       N1570   1.333       .  A
C635        N636   1.369       .  A
N636       C1567   1.374       .  A
Zr637       O638   2.438       .  S
Zr637      O1107   2.505   1_565  S
Zr637       O640   2.507       .  S
Zr637      O1113   2.396   1_565  S
Zr637      O1114   2.403   1_565  S
Zr637       O647   2.429       .  S
Zr637       O648   2.413       .  S
O638        H694   0.990       .  S
O638        H702   0.990       .  S
O639      Zr1105   2.503   1_455  S
O639        C659   1.296       .  A
O640       C1597   1.299       .  A
O641       Zr885   2.409   1_554  S
O641        C660   1.270       .  A
O642       Zr650   2.454   1_554  S
O642        C661   1.289       .  A
O643        C660   1.295       .  A
O644       Zr652   2.412       .  S
O644        C659   1.278       .  A
O645      Zr1105   2.396   1_455  S
O645       Zr652   2.382       .  S
O646      Zr1105   2.404   1_455  S
O646      Zr1821   2.412   1_454  S
O646       Zr652   2.376       .  S
O646        H681   0.967       .  S
O647      Zr1586   2.406   1_554  S
O647       Zr901   2.380   1_554  S
O647        H684   0.964       .  S
O648       Zr901   2.382   1_554  S
Zr649       O674   2.438   1_655  S
Zr649      O1136   2.563       .  S
Zr649       O676   2.536   1_655  S
Zr649       O655   2.407   1_655  S
Zr649       O656   2.442   1_655  S
Zr649      O1125   2.387       .  S
Zr649      O1126   2.400       .  S
Zr650       O903   2.434       .  S
Zr650       O662   2.436   1_556  S
Zr650       O897   2.461       .  S
Zr650      O1583   2.406   1_456  S
Zr650      O1827   2.391   1_455  S
Zr651       O653   2.437       .  S
Zr651       O675   2.440       .  S
Zr651       O875   2.409       .  S
Zr651       O677   2.413       .  S
Zr651      O1816   2.412       .  S
Zr651      O1591   2.371       .  S
Zr652       O678   2.437       .  S
Zr652       O913   2.437   1_554  S
Zr652       O654   2.438   1_554  S
Zr652       O889   2.381   1_554  S
Zr652       O890   2.391   1_554  S
O653        H690   0.990       .  S
O654        H685   0.990   1_556  S
O654        H699   0.990   1_556  S
O655      Zr1587   2.369   1_455  S
O655       Zr886   2.381       .  S
O656       Zr886   2.391       .  S
O656        H682   0.965       .  S
O657      Zr1117   2.386       .  S
O657      Zr1820   2.390       .  S
O657       Zr667   2.387       .  S
O658      Zr1117   2.401       .  S
O658       Zr667   2.399       .  S
O658        H683   0.965       .  S
C661       O1576   1.299   1_455  A
O662        H698   0.990       .  S
O663       Zr884   2.459       .  S
O663        C665   1.290       .  A
O664        C665   1.297       .  A
O666       Zr901   2.442   1_554  S
O666        H695   0.989       .  S
Zr667       O900   2.442       .  S
Zr667       O670   2.439       .  S
Zr667       O671   2.446       .  S
Zr667       O672   2.382       .  S
Zr667       O881   2.380       .  S
Zr667       O882   2.383       .  S
O668      Zr1117   2.562       .  S
O668        C673   1.304       .  A
O669       Zr884   2.435       .  S
O669        H686   0.990       .  S
O669       H1871   0.990   1_455  S
O670        H687   0.991       .  S
O671        H691   0.990       .  S
O671        H700   0.989       .  S
O672        C673   1.266       .  A
O674        H693   0.991       .  S
O674        H697   0.990       .  S
O675        H689   0.990       .  S
O675        H930   0.991       .  S
O676       C1616   1.304   1_455  A
O677        C680   1.279       .  A
O678        H688   0.990       .  S
O679       Zr886   2.437       .  S
O679        H692   0.991       .  S
C680       O1612   1.304       .  A
C680       C1471   1.492       .  S
H696        O909   0.991   1_554  S
H701       O1839   0.990   1_554  S
Zr703       O704   2.438       .  S
Zr703       O705   2.463       .  S
Zr703       O706   2.539       .  S
Zr703       O709   2.419       .  S
Zr703       O711   2.370       .  S
Zr703       O712   2.408       .  S
Zr703       O713   2.386       .  S
Zr703       O714   2.431       .  S
O704        H760   0.990       .  S
O704        H768   0.990       .  S
O705        C725   1.296       .  A
O706        C727   1.307       .  A
O707       Zr717   2.445       .  S
O707        C726   1.285       .  A
O708       Zr716   2.353       .  S
O708        C727   1.266       .  A
O709        C726   1.276       .  A
O710       Zr718   2.413       .  S
O710        C725   1.276       .  A
O711       Zr716   2.388       .  S
O711       Zr718   2.407       .  S
O712       Zr717   2.356       .  S
O712       Zr718   2.360       .  S
O712        H747   0.965       .  S
O713       Zr716   2.395       .  S
O713       Zr733   2.375       .  S
O713        H750   0.963       .  S
O714       Zr717   2.401       .  S
O714       Zr733   2.394       .  S
Zr715       O740   2.439       .  S
Zr715       O734   2.444       .  S
Zr715       O742   2.404       .  S
Zr715       O730   2.516       .  S
Zr715       O721   2.428       .  S
Zr715       O722   2.384       .  S
Zr715       O723   2.366       .  S
Zr715       O724   2.400       .  S
Zr716       O735   2.440       .  S
Zr716       O728   2.435       .  S
Zr716       O729   2.350       .  S
Zr716       O722   2.396       .  S
Zr716       O723   2.395       .  S
Zr717       O719   2.437       .  S
Zr717       O741   2.436       .  S
Zr717       O743   2.455       .  S
Zr717       O721   2.391       .  S
Zr717       O724   2.349       .  S
Zr718       O744   2.436       .  S
Zr718       O745   2.437       .  S
Zr718       O720   2.438       .  S
Zr718       O721   2.393       .  S
Zr718       O722   2.382       .  S
O719        H756   0.990       .  S
O720        H751   0.991       .  S
O720        H765   0.990       .  S
O722        H748   0.963       .  S
O723       Zr733   2.398       .  S
O724       Zr733   2.342       .  S
O724        H749   0.961       .  S
C725        C869   1.464       .  S
C726        C863   1.466       .  S
C727        C771   1.469       .  S
O728        H764   0.990       .  S
O729        C731   1.263       .  A
O730        C731   1.302       .  A
C731        C845   1.465       .  S
O732       Zr733   2.440       .  S
O732        H761   0.991       .  S
Zr733       O736   2.438       .  S
Zr733       O737   2.438       .  S
Zr733       O738   2.433       .  S
O734        C739   1.290       .  A
O735        H752   0.990       .  S
O735        H767   0.990       .  S
O736        H753   0.990       .  S
O737        H757   0.990       .  S
O737        H766   0.990       .  S
O738        C739   1.282       .  A
C739        C849   1.451       .  S
O740        H759   0.991       .  S
O740        H763   0.990       .  S
O741        H755   0.990       .  S
O741        H762   0.989       .  S
O742        C746   1.277       .  A
O743        C746   1.294       .  A
O744        H754   0.990       .  S
O745        H758   0.990       .  S
C746        C855   1.462       .  S
C769       C1850   1.491       .  S
C769       N1706   1.370       .  A
C769        N774   1.372   1_655  A
N770       C1705   1.370       .  A
N770        C771   1.368       .  A
C771       N1708   1.332       .  A
N772       C1707   1.332   1_455  A
N772        C773   1.349       .  A
C773        C799   1.462       .  S
C773        N774   1.368       .  A
Zr775       O776   2.440       .  S
Zr775       O777   2.461       .  S
Zr775       O778   2.457       .  S
Zr775       O781   2.514       .  S
Zr775       O783   2.385       .  S
Zr775       O784   2.384       .  S
Zr775       O785   2.422       .  S
Zr775       O786   2.298       .  S
O776        H832   0.991       .  S
O776        H840   0.990       .  S
O777        C797   1.296       .  A
O778        C799   1.281       .  A
O779       Zr789   2.378       .  S
O779        C798   1.268       .  A
O780       Zr788   2.408       .  S
O780        C799   1.274       .  A
O781        C798   1.304       .  A
O782       Zr790   2.415       .  S
O782        C797   1.274       .  A
O783       Zr788   2.366       .  S
O783       Zr790   2.366       .  S
O784       Zr789   2.397       .  S
O784       Zr790   2.405       .  S
O784        H819   0.966       .  S
O785       Zr788   2.438       .  S
O785       Zr805   2.383       .  S
O785        H822   0.962       .  S
O786       Zr789   2.287       .  S
O786       Zr805   2.303       .  S
Zr787       O812   2.441       .  S
Zr787       O806   2.438       .  S
Zr787       O814   2.422       .  S
Zr787       O802   2.387       .  S
Zr787       O793   2.389       .  S
Zr787       O794   2.406       .  S
Zr787       O795   2.363       .  S
Zr787       O796   2.385       .  S
Zr788       O807   2.437       .  S
Zr788       O800   2.436       .  S
Zr788       O801   2.453       .  S
Zr788       O794   2.398       .  S
Zr788       O795   2.327       .  S
Zr789       O791   2.440       .  S
Zr789       O813   2.442       .  S
Zr789       O815   2.391       .  S
Zr789       O793   2.379       .  S
Zr789       O796   2.390       .  S
Zr790       O816   2.438       .  S
Zr790       O817   2.436       .  S
Zr790       O792   2.439       .  S
Zr790       O793   2.395       .  S
Zr790       O794   2.396       .  S
O791        H828   0.990       .  S
O792        H823   0.991       .  S
O792        H837   0.989       .  S
O794        H820   0.966       .  S
O795       Zr805   2.338       .  S
O796       Zr805   2.389       .  S
O796        H821   0.964       .  S
C797        C857   1.468       .  S
C798        C861   1.475       .  S
O800        H836   0.990       .  S
O801        C803   1.293       .  A
O802        C803   1.274       .  A
C803        C867   1.459       .  S
O804       Zr805   2.443       .  S
O804        H833   0.991       .  S
Zr805       O808   2.442       .  S
Zr805       O809   2.447       .  S
Zr805       O810   2.442       .  S
O806        C811   1.289       .  A
O807        H824   0.989       .  S
O807        H839   0.990       .  S
O808        H825   0.991       .  S
O809        H829   0.991       .  S
O809        H838   0.990       .  S
O810        C811   1.281       .  A
C811        C851   1.448       .  S
O812        H831   0.990       .  S
O812        H835   0.991       .  S
O813        H827   0.990       .  S
O813        H834   0.990       .  S
O814        C818   1.284       .  A
O815        C818   1.272       .  A
O816        H826   0.990       .  S
O817        H830   0.990       .  S
C818        C843   1.449       .  S
C841        C894   1.489       .  S
C841        N846   1.363       .  A
N842        C843   1.367       .  A
N844        C845   1.342       .  A
C845        N846   1.368       .  A
C847        C899   1.493       .  S
C847        N852   1.372       .  A
N848        C849   1.367       .  A
N850        C851   1.332       .  A
C851        N852   1.368       .  A
C853        C893   1.489       .  S
C853        N854   1.373       .  A
C853        N858   1.376       .  A
N854        C855   1.365       .  A
C855        N856   1.335       .  A
N856        C857   1.331       .  A
C857        N858   1.370       .  A
C859        C907   1.504       .  S
C859        N860   1.373       .  A
C859        N864   1.372       .  A
N860        C861   1.377       .  A
C861        N862   1.341       .  A
N862        C863   1.345       .  A
C863        N864   1.366       .  A
C865        C895   1.493       .  S
C865        N866   1.372       .  A
C865       N1806   1.375   1_455  A
N866        C867   1.366       .  A
C867        N868   1.337       .  A
N868       C1805   1.333   1_455  A
C869       N1804   1.332       .  A
C869        N870   1.369       .  A
N870       C1801   1.375       .  A
Zr871       O872   2.438       .  S
Zr871      O1341   2.503   1_565  S
Zr871       O874   2.507       .  S
Zr871      O1347   2.396   1_565  S
Zr871      O1348   2.404   1_565  S
Zr871       O881   2.428       .  S
Zr871       O882   2.412       .  S
O872        H928   0.990       .  S
O872        H936   0.991       .  S
O873      Zr1339   2.502   1_455  S
O873        C893   1.296       .  A
O874       C1831   1.299       .  A
O875        C894   1.270       .  A
O876       Zr884   2.450       .  S
O876        C895   1.288       .  A
O877        C894   1.296       .  A
O878       Zr886   2.413       .  S
O878        C893   1.278       .  A
O879      Zr1339   2.396   1_455  S
O879       Zr886   2.382       .  S
O880      Zr1339   2.404   1_455  S
O880      Zr1587   2.412   1_455  S
O880       Zr886   2.375       .  S
O880        H915   0.967       .  S
O881      Zr1820   2.407       .  S
O881        H918   0.964       .  S
Zr883       O908   2.438   1_655  S
Zr883      O1370   2.563       .  S
Zr883       O910   2.537   1_655  S
Zr883       O889   2.406   1_655  S
Zr883       O890   2.443   1_655  S
Zr883      O1359   2.386       .  S
Zr883      O1360   2.401       .  S
Zr884       O896   2.436       .  S
Zr884      O1817   2.405   1_455  S
Zr884      O1593   2.391   1_455  S
Zr885       O887   2.437       .  S
Zr885       O909   2.440       .  S
Zr885       O911   2.413       .  S
Zr885      O1582   2.413   1_556  S
Zr885      O1825   2.371       .  S
Zr886       O912   2.437       .  S
Zr886       O888   2.437       .  S
O887        H924   0.990   1_556  S
O888        H919   0.990       .  S
O888        H933   0.990       .  S
O889      Zr1821   2.370   1_455  S
O890        H916   0.965       .  S
O891      Zr1351   2.388       .  S
O891      Zr1586   2.390       .  S
O891       Zr901   2.388       .  S
O892      Zr1351   2.400       .  S
O892       Zr901   2.400       .  S
O892        H917   0.965       .  S
C895       O1810   1.299   1_455  A
O896        H932   0.990       .  S
O897        C899   1.290       .  A
O898        C899   1.296       .  A
O900        H929   0.990       .  S
Zr901       O904   2.438   1_556  S
Zr901       O905   2.446       .  S
Zr901       O906   2.380       .  S
O902      Zr1351   2.564       .  S
O902        C907   1.305       .  A
O903        H920   0.990       .  S
O903       H1637   0.990   1_456  S
O904        H921   0.991       .  S
O905        H925   0.990       .  S
O905        H934   0.989       .  S
O906        C907   1.266       .  A
O908        H927   0.991       .  S
O908        H931   0.990       .  S
O909        H923   0.990   1_556  S
O910       C1850   1.304   1_455  A
O911        C914   1.279       .  A
O912        H922   0.990       .  S
O913        H926   0.990       .  S
C914       O1846   1.304       .  A
C914       C1705   1.491       .  S
H935       O1605   0.990       .  S
Zr937       O938   2.437       .  S
Zr937       O939   2.461       .  S
Zr937       O940   2.538       .  S
Zr937       O943   2.421       .  S
Zr937       O945   2.370       .  S
Zr937       O946   2.409       .  S
Zr937       O947   2.386       .  S
Zr937       O948   2.430       .  S
O938        H994   0.990       .  S
O938       H1002   0.990       .  S
O939        C959   1.295       .  A
O940        C961   1.307       .  A
O941       Zr951   2.444       .  S
O941        C960   1.285       .  A
O942       Zr950   2.352       .  S
O942        C961   1.266       .  A
O943        C960   1.277       .  A
O944       Zr952   2.417       .  S
O944        C959   1.277       .  A
O945       Zr950   2.391       .  S
O945       Zr952   2.407       .  S
O946       Zr951   2.356       .  S
O946       Zr952   2.359       .  S
O946        H981   0.965       .  S
O947       Zr950   2.394       .  S
O947       Zr967   2.375       .  S
O947        H984   0.963       .  S
O948       Zr951   2.401       .  S
O948       Zr967   2.393       .  S
Zr949       O974   2.439       .  S
Zr949       O968   2.443       .  S
Zr949       O976   2.405       .  S
Zr949       O964   2.517       .  S
Zr949       O955   2.429       .  S
Zr949       O956   2.383       .  S
Zr949       O957   2.366       .  S
Zr949       O958   2.401       .  S
Zr950       O969   2.440       .  S
Zr950       O962   2.437       .  S
Zr950       O963   2.348       .  S
Zr950       O956   2.396       .  S
Zr950       O957   2.393       .  S
Zr951       O953   2.437       .  S
Zr951       O975   2.437       .  S
Zr951       O977   2.455       .  S
Zr951       O955   2.391       .  S
Zr951       O958   2.350       .  S
Zr952       O978   2.437       .  S
Zr952       O979   2.437       .  S
Zr952       O954   2.437       .  S
Zr952       O955   2.393       .  S
Zr952       O956   2.382       .  S
O953        H990   0.990       .  S
O954        H985   0.991       .  S
O954        H999   0.990       .  S
O956        H982   0.963       .  S
O957       Zr967   2.399       .  S
O958       Zr967   2.344       .  S
O958        H983   0.961       .  S
C959       C1103   1.465       .  S
C960       C1097   1.466       .  S
C961       C1005   1.468       .  S
O962        H998   0.990       .  S
O963        C965   1.263       .  A
O964        C965   1.302       .  A
C965       C1079   1.465       .  S
O966       Zr967   2.439       .  S
O966        H995   0.991       .  S
Zr967       O970   2.439       .  S
Zr967       O971   2.437       .  S
Zr967       O972   2.430       .  S
O968        C973   1.289       .  A
O969        H986   0.990       .  S
O969       H1001   0.990       .  S
O970        H987   0.990       .  S
O971        H991   0.990       .  S
O971       H1000   0.990       .  S
O972        C973   1.281       .  A
C973       C1083   1.449       .  S
O974        H993   0.991       .  S
O974        H997   0.990       .  S
O975        H989   0.990       .  S
O975        H996   0.989       .  S
O976        C980   1.277       .  A
O977        C980   1.294       .  A
O978        H988   0.990       .  S
O979        H992   0.990       .  S
C980       C1089   1.463       .  S
C1003      N1008   1.372       .  A
N1004      C1005   1.368       .  A
N1006      C1007   1.349       .  A
C1007      C1033   1.462       .  S
C1007      N1008   1.369       .  A
Zr1009     O1010   2.440       .  S
Zr1009     O1011   2.462       .  S
Zr1009     O1012   2.457       .  S
Zr1009     O1015   2.513       .  S
Zr1009     O1017   2.384       .  S
Zr1009     O1018   2.385       .  S
Zr1009     O1019   2.422       .  S
Zr1009     O1020   2.297       .  S
O1010      H1066   0.991       .  S
O1010      H1074   0.990       .  S
O1011      C1031   1.296       .  A
O1012      C1033   1.281       .  A
O1013     Zr1023   2.378       .  S
O1013      C1032   1.268       .  A
O1014     Zr1022   2.409       .  S
O1014      C1033   1.275       .  A
O1015      C1032   1.303       .  A
O1016     Zr1024   2.416       .  S
O1016      C1031   1.274       .  A
O1017     Zr1022   2.365       .  S
O1017     Zr1024   2.366       .  S
O1018     Zr1023   2.397       .  S
O1018     Zr1024   2.406       .  S
O1018      H1053   0.966       .  S
O1019     Zr1022   2.438       .  S
O1019     Zr1039   2.384       .  S
O1019      H1056   0.962       .  S
O1020     Zr1023   2.286       .  S
O1020     Zr1039   2.302       .  S
Zr1021     O1046   2.441       .  S
Zr1021     O1040   2.439       .  S
Zr1021     O1048   2.421       .  S
Zr1021     O1036   2.387       .  S
Zr1021     O1027   2.389       .  S
Zr1021     O1028   2.407       .  S
Zr1021     O1029   2.362       .  S
Zr1021     O1030   2.385       .  S
Zr1022     O1041   2.436       .  S
Zr1022     O1034   2.437       .  S
Zr1022     O1035   2.454       .  S
Zr1022     O1028   2.399       .  S
Zr1022     O1029   2.327       .  S
Zr1023     O1025   2.440       .  S
Zr1023     O1047   2.442       .  S
Zr1023     O1049   2.393       .  S
Zr1023     O1027   2.379       .  S
Zr1023     O1030   2.391       .  S
Zr1024     O1050   2.437       .  S
Zr1024     O1051   2.436       .  S
Zr1024     O1026   2.439       .  S
Zr1024     O1027   2.394       .  S
Zr1024     O1028   2.396       .  S
O1025      H1062   0.991       .  S
O1026      H1057   0.991       .  S
O1026      H1071   0.989       .  S
O1028      H1054   0.966       .  S
O1029     Zr1039   2.339       .  S
O1030     Zr1039   2.389       .  S
O1030      H1055   0.965       .  S
C1031      C1091   1.468       .  S
C1032      C1095   1.474       .  S
O1034      H1070   0.990       .  S
O1035      C1037   1.293       .  A
O1036      C1037   1.274       .  A
C1037      C1101   1.459       .  S
O1038     Zr1039   2.443       .  S
O1038      H1067   0.991       .  S
Zr1039     O1042   2.442       .  S
Zr1039     O1043   2.447       .  S
Zr1039     O1044   2.441       .  S
O1040      C1045   1.289       .  A
O1041      H1058   0.989       .  S
O1041      H1073   0.990       .  S
O1042      H1059   0.991       .  S
O1043      H1063   0.991       .  S
O1043      H1072   0.990       .  S
O1044      C1045   1.281       .  A
C1045      C1085   1.449       .  S
O1046      H1065   0.990       .  S
O1046      H1069   0.991       .  S
O1047      H1061   0.990       .  S
O1047      H1068   0.990       .  S
O1048      C1052   1.284       .  A
O1049      C1052   1.272       .  A
O1050      H1060   0.990       .  S
O1051      H1064   0.990       .  S
C1052      C1077   1.449       .  S
C1075      C1128   1.489       .  S
C1075      N1544   1.359   1_545  A
C1075      N1080   1.363       .  A
N1076      C1543   1.359       .  A
N1076      C1077   1.366       .  A
C1077      N1546   1.350       .  A
N1078      C1545   1.351   1_545  A
N1078      C1079   1.342       .  A
C1079      N1080   1.368       .  A
C1081      C1133   1.492       .  S
C1081      N1550   1.373       .  A
C1081      N1086   1.372       .  A
N1082      C1549   1.373   1_545  A
N1082      C1083   1.367       .  A
C1083      N1552   1.328   1_545  A
N1084      C1551   1.328       .  A
N1084      C1085   1.332       .  A
C1085      N1086   1.368       .  A
C1087      C1127   1.489       .  S
C1087      N1088   1.373       .  A
C1087      N1092   1.377       .  A
N1088      C1089   1.364       .  A
C1089      N1090   1.335       .  A
N1090      C1091   1.331       .  A
C1091      N1092   1.371       .  A
C1093      C1141   1.503       .  S
C1093      N1094   1.373       .  A
C1093      N1098   1.372       .  A
N1094      C1095   1.376       .  A
C1095      N1096   1.341       .  A
N1096      C1097   1.345       .  A
C1097      N1098   1.366       .  A
C1099      C1129   1.493       .  S
C1099      N1100   1.372       .  A
N1100      C1101   1.366       .  A
C1101      N1102   1.337       .  A
C1103      N1104   1.369       .  A
Zr1105     O1106   2.438       .  S
Zr1105     O1108   2.508       .  S
Zr1105     O1579   2.512       .  S
Zr1105     O1115   2.427       .  S
Zr1105     O1116   2.412       .  S
O1106      H1162   0.990       .  S
O1106      H1170   0.991       .  S
O1107      C1127   1.297       .  A
O1109     Zr1353   2.409   1_554  S
O1109      C1128   1.270       .  A
O1110     Zr1118   2.453       .  S
O1110      C1129   1.288       .  A
O1111     Zr1573   2.512       .  S
O1111      C1128   1.296   1_565  A
O1112     Zr1120   2.408       .  S
O1112      C1127   1.277       .  A
O1113     Zr1586   2.402   1_544  S
O1113     Zr1120   2.382       .  S
O1114     Zr1120   2.376       .  S
O1114      H1149   0.967       .  S
O1115     Zr1369   2.379   1_554  S
O1115      H1152   0.964       .  S
O1116     Zr1821   2.385   1_554  S
O1116     Zr1369   2.382   1_554  S
Zr1117     O1142   2.438   1_565  S
Zr1117     O1144   2.534   1_565  S
Zr1117     O1600   2.498       .  S
Zr1117     O1123   2.407   1_565  S
Zr1117     O1124   2.442   1_565  S
Zr1118     O1371   2.434   1_554  S
Zr1118     O1130   2.435       .  S
Zr1118     O1365   2.460   1_554  S
Zr1118     O1581   2.403       .  S
Zr1118     O1826   2.402   1_554  S
Zr1119     O1121   2.436       .  S
Zr1119     O1143   2.440       .  S
Zr1119     O1343   2.410       .  S
Zr1119     O1145   2.414       .  S
Zr1119     O1818   2.385   1_545  S
Zr1119     O1594   2.399   1_545  S
Zr1120     O1146   2.436       .  S
Zr1120     O1381   2.437   1_554  S
Zr1120     O1122   2.438   1_554  S
Zr1120     O1357   2.381   1_554  S
Zr1120     O1358   2.390   1_554  S
O1121      H1158   0.990   1_545  S
O1122      H1153   0.990   1_556  S
O1122      H1167   0.990   1_556  S
O1123     Zr1354   2.381       .  S
O1124     Zr1820   2.403   1_545  S
O1124     Zr1354   2.390       .  S
O1124      H1150   0.965       .  S
O1125     Zr1135   2.388       .  S
O1126     Zr1587   2.398       .  S
O1126     Zr1135   2.400       .  S
O1126      H1151   0.965       .  S
O1130      H1166   0.990       .  S
O1131     Zr1352   2.458       .  S
O1131      C1133   1.290       .  A
O1132     Zr1585   2.495       .  S
O1132      C1133   1.297       .  A
O1134     Zr1369   2.442   1_554  S
O1134      H1163   0.990       .  S
Zr1135     O1368   2.443       .  S
Zr1135     O1138   2.439       .  S
Zr1135     O1139   2.446       .  S
Zr1135     O1140   2.380       .  S
Zr1135     O1349   2.379       .  S
Zr1135     O1350   2.382       .  S
O1136      C1141   1.305       .  A
O1137     Zr1352   2.434       .  S
O1137      H1154   0.990       .  S
O1138      H1155   0.991       .  S
O1139      H1159   0.990       .  S
O1139      H1168   0.989       .  S
O1140      C1141   1.266       .  A
O1142      H1161   0.991       .  S
O1142      H1165   0.990   1_545  S
O1143      H1157   0.990       .  S
O1143      H1398   0.991       .  S
O1145      C1148   1.279       .  A
O1146      H1156   0.990       .  S
O1147     Zr1354   2.437       .  S
O1147      H1160   0.991       .  S
H1164      O1377   0.991   1_554  S
Zr1171     O1172   2.438       .  S
Zr1171     O1173   2.463       .  S
Zr1171     O1174   2.539       .  S
Zr1171     O1177   2.422       .  S
Zr1171     O1179   2.370       .  S
Zr1171     O1180   2.409       .  S
Zr1171     O1181   2.386       .  S
Zr1171     O1182   2.429       .  S
O1172      H1228   0.990       .  S
O1172      H1236   0.990       .  S
O1173      C1193   1.296       .  A
O1174      C1195   1.307       .  A
O1175     Zr1185   2.444       .  S
O1175      C1194   1.284       .  A
O1176     Zr1184   2.353       .  S
O1176      C1195   1.266       .  A
O1177      C1194   1.277       .  A
O1178     Zr1186   2.415       .  S
O1178      C1193   1.277       .  A
O1179     Zr1184   2.390       .  S
O1179     Zr1186   2.406       .  S
O1180     Zr1185   2.356       .  S
O1180     Zr1186   2.361       .  S
O1180      H1215   0.965       .  S
O1181     Zr1184   2.396       .  S
O1181     Zr1201   2.375       .  S
O1181      H1218   0.963       .  S
O1182     Zr1185   2.401       .  S
O1182     Zr1201   2.393       .  S
Zr1183     O1208   2.439       .  S
Zr1183     O1202   2.444       .  S
Zr1183     O1210   2.403       .  S
Zr1183     O1198   2.516       .  S
Zr1183     O1189   2.428       .  S
Zr1183     O1190   2.383       .  S
Zr1183     O1191   2.365       .  S
Zr1183     O1192   2.400       .  S
Zr1184     O1203   2.440       .  S
Zr1184     O1196   2.438       .  S
Zr1184     O1197   2.347       .  S
Zr1184     O1190   2.398       .  S
Zr1184     O1191   2.393       .  S
Zr1185     O1187   2.437       .  S
Zr1185     O1209   2.436       .  S
Zr1185     O1211   2.454       .  S
Zr1185     O1189   2.391       .  S
Zr1185     O1192   2.349       .  S
Zr1186     O1212   2.436       .  S
Zr1186     O1213   2.437       .  S
Zr1186     O1188   2.438       .  S
Zr1186     O1189   2.393       .  S
Zr1186     O1190   2.381       .  S
O1187      H1224   0.990       .  S
O1188      H1219   0.991       .  S
O1188      H1233   0.990       .  S
O1190      H1216   0.963       .  S
O1191     Zr1201   2.398       .  S
O1192     Zr1201   2.343       .  S
O1192      H1217   0.961       .  S
C1193      C1337   1.465       .  S
C1194      C1331   1.467       .  S
C1195      C1239   1.469       .  S
O1196      H1232   0.990       .  S
O1197      C1199   1.262       .  A
O1198      C1199   1.302       .  A
C1199      C1313   1.464       .  S
O1200     Zr1201   2.439       .  S
O1200      H1229   0.991       .  S
Zr1201     O1204   2.438       .  S
Zr1201     O1205   2.437       .  S
Zr1201     O1206   2.431       .  S
O1202      C1207   1.289       .  A
O1203      H1220   0.990       .  S
O1203      H1235   0.990       .  S
O1204      H1221   0.990       .  S
O1205      H1225   0.990       .  S
O1205      H1234   0.990       .  S
O1206      C1207   1.282       .  A
C1207      C1317   1.450       .  S
O1208      H1227   0.991       .  S
O1208      H1231   0.990       .  S
O1209      H1223   0.990       .  S
O1209      H1230   0.989       .  S
O1210      C1214   1.277       .  A
O1211      C1214   1.294       .  A
O1212      H1222   0.990       .  S
O1213      H1226   0.990       .  S
C1214      C1323   1.462       .  S
C1237      N1242   1.372       .  A
N1238      C1239   1.368       .  A
N1240      C1241   1.350       .  A
C1241      C1267   1.463       .  S
C1241      N1242   1.369       .  A
Zr1243     O1244   2.440       .  S
Zr1243     O1245   2.462       .  S
Zr1243     O1246   2.459       .  S
Zr1243     O1249   2.512       .  S
Zr1243     O1251   2.383       .  S
Zr1243     O1252   2.385       .  S
Zr1243     O1253   2.421       .  S
Zr1243     O1254   2.298       .  S
O1244      H1300   0.991       .  S
O1244      H1308   0.990       .  S
O1245      C1265   1.296       .  A
O1246      C1267   1.282       .  A
O1247     Zr1257   2.378       .  S
O1247      C1266   1.268       .  A
O1248     Zr1256   2.409       .  S
O1248      C1267   1.275       .  A
O1249      C1266   1.303       .  A
O1250     Zr1258   2.416       .  S
O1250      C1265   1.274       .  A
O1251     Zr1256   2.365       .  S
O1251     Zr1258   2.365       .  S
O1252     Zr1257   2.398       .  S
O1252     Zr1258   2.405       .  S
O1252      H1287   0.966       .  S
O1253     Zr1256   2.438       .  S
O1253     Zr1273   2.384       .  S
O1253      H1290   0.962       .  S
O1254     Zr1257   2.288       .  S
O1254     Zr1273   2.302       .  S
Zr1255     O1280   2.440       .  S
Zr1255     O1274   2.443       .  S
Zr1255     O1282   2.421       .  S
Zr1255     O1270   2.385       .  S
Zr1255     O1261   2.392       .  S
Zr1255     O1262   2.407       .  S
Zr1255     O1263   2.362       .  S
Zr1255     O1264   2.384       .  S
Zr1256     O1275   2.436       .  S
Zr1256     O1268   2.437       .  S
Zr1256     O1269   2.453       .  S
Zr1256     O1262   2.399       .  S
Zr1256     O1263   2.328       .  S
Zr1257     O1259   2.441       .  S
Zr1257     O1281   2.443       .  S
Zr1257     O1283   2.395       .  S
Zr1257     O1261   2.380       .  S
Zr1257     O1264   2.392       .  S
Zr1258     O1284   2.438       .  S
Zr1258     O1285   2.436       .  S
Zr1258     O1260   2.439       .  S
Zr1258     O1261   2.396       .  S
Zr1258     O1262   2.397       .  S
O1259      H1296   0.991       .  S
O1260      H1291   0.991       .  S
O1260      H1305   0.989       .  S
O1262      H1288   0.966       .  S
O1263     Zr1273   2.338       .  S
O1264     Zr1273   2.390       .  S
O1264      H1289   0.964       .  S
C1265      C1325   1.468       .  S
C1266      C1329   1.474       .  S
O1268      H1304   0.990       .  S
O1269      C1271   1.293       .  A
O1270      C1271   1.274       .  A
C1271      C1335   1.459       .  S
O1272     Zr1273   2.442       .  S
O1272      H1301   0.991       .  S
Zr1273     O1276   2.442       .  S
Zr1273     O1277   2.447       .  S
Zr1273     O1278   2.442       .  S
O1274      C1279   1.290       .  A
O1275      H1292   0.989       .  S
O1275      H1307   0.990       .  S
O1276      H1293   0.991       .  S
O1277      H1297   0.991       .  S
O1277      H1306   0.990       .  S
O1278      C1279   1.281       .  A
C1279      C1319   1.450       .  S
O1280      H1299   0.990       .  S
O1280      H1303   0.991       .  S
O1281      H1295   0.990       .  S
O1281      H1302   0.990       .  S
O1282      C1286   1.284       .  A
O1283      C1286   1.273       .  A
O1284      H1294   0.990       .  S
O1285      H1298   0.990       .  S
C1286      C1311   1.450       .  S
C1309      C1362   1.489       .  S
C1309      N1778   1.359   1_545  A
C1309      N1314   1.363       .  A
N1310      C1777   1.359       .  A
N1310      C1311   1.366       .  A
C1311      N1780   1.351       .  A
N1312      C1779   1.350   1_545  A
N1312      C1313   1.341       .  A
C1313      N1314   1.368       .  A
C1315      C1367   1.494       .  S
C1315      N1784   1.373       .  A
C1315      N1320   1.372       .  A
N1316      C1783   1.373   1_545  A
N1316      C1317   1.367       .  A
C1317      N1786   1.329   1_545  A
N1318      C1785   1.329       .  A
N1318      C1319   1.332       .  A
C1319      N1320   1.369       .  A
C1321      C1361   1.488       .  S
C1321      N1322   1.373       .  A
C1321      N1326   1.377       .  A
N1322      C1323   1.364       .  A
C1323      N1324   1.335       .  A
N1324      C1325   1.331       .  A
C1325      N1326   1.371       .  A
C1327      C1375   1.503       .  S
C1327      N1328   1.373       .  A
C1327      N1332   1.372       .  A
N1328      C1329   1.376       .  A
C1329      N1330   1.341       .  A
N1330      C1331   1.345       .  A
C1331      N1332   1.367       .  A
C1333      C1363   1.493       .  S
C1333      N1334   1.372       .  A
N1334      C1335   1.366       .  A
C1335      N1336   1.337       .  A
C1337      N1338   1.369       .  A
Zr1339     O1340   2.438       .  S
Zr1339     O1342   2.508       .  S
Zr1339     O1813   2.513       .  S
Zr1339     O1349   2.426       .  S
Zr1339     O1350   2.412       .  S
O1340      H1396   0.990       .  S
O1340      H1404   0.991       .  S
O1341      C1361   1.296       .  A
O1343      C1362   1.270       .  A
O1344     Zr1352   2.451       .  S
O1344      C1363   1.288       .  A
O1345     Zr1807   2.512       .  S
O1345      C1362   1.295   1_565  A
O1346     Zr1354   2.410       .  S
O1346      C1361   1.277       .  A
O1347     Zr1820   2.403   1_545  S
O1347     Zr1354   2.382       .  S
O1348     Zr1354   2.376       .  S
O1348      H1383   0.967       .  S
O1349      H1386   0.964       .  S
O1350     Zr1587   2.387       .  S
Zr1351     O1376   2.438   1_565  S
Zr1351     O1378   2.537   1_565  S
Zr1351     O1834   2.495       .  S
Zr1351     O1357   2.406   1_565  S
Zr1351     O1358   2.443   1_565  S
Zr1352     O1364   2.435       .  S
Zr1352     O1815   2.403       .  S
Zr1352     O1592   2.402       .  S
Zr1353     O1355   2.436       .  S
Zr1353     O1377   2.440       .  S
Zr1353     O1379   2.414       .  S
Zr1353     O1584   2.387   1_546  S
Zr1353     O1828   2.398   1_545  S
Zr1354     O1380   2.437       .  S
Zr1354     O1356   2.438       .  S
O1355      H1392   0.990   1_546  S
O1356      H1387   0.990       .  S
O1356      H1401   0.990       .  S
O1358     Zr1586   2.402   1_545  S
O1358      H1384   0.965       .  S
O1359     Zr1369   2.387       .  S
O1360     Zr1821   2.399       .  S
O1360     Zr1369   2.400       .  S
O1360      H1385   0.965       .  S
O1364      H1400   0.990       .  S
O1365      C1367   1.290       .  A
O1366     Zr1819   2.497       .  S
O1366      C1367   1.297       .  A
O1368      H1397   0.990       .  S
Zr1369     O1372   2.439   1_556  S
Zr1369     O1373   2.446       .  S
Zr1369     O1374   2.381       .  S
O1370      C1375   1.305       .  A
O1371      H1388   0.990       .  S
O1372      H1389   0.991       .  S
O1373      H1393   0.990       .  S
O1373      H1402   0.989       .  S
O1374      C1375   1.267       .  A
O1376      H1395   0.991       .  S
O1376      H1399   0.990   1_545  S
O1377      H1391   0.990   1_556  S
O1379      C1382   1.279       .  A
O1380      H1390   0.990       .  S
O1381      H1394   0.990       .  S
Zr1405     O1406   2.437       .  S
Zr1405     O1407   2.464       .  S
Zr1405     O1408   2.538       .  S
Zr1405     O1411   2.421       .  S
Zr1405     O1413   2.371       .  S
Zr1405     O1414   2.408       .  S
Zr1405     O1415   2.388       .  S
Zr1405     O1416   2.431       .  S
O1406      H1462   0.990       .  S
O1406      H1470   0.990       .  S
O1407      C1427   1.296       .  A
O1408      C1429   1.307       .  A
O1409     Zr1419   2.444       .  S
O1409      C1428   1.284       .  A
O1410     Zr1418   2.352       .  S
O1410      C1429   1.266       .  A
O1411      C1428   1.277       .  A
O1412     Zr1420   2.415       .  S
O1412      C1427   1.277       .  A
O1413     Zr1418   2.389       .  S
O1413     Zr1420   2.407       .  S
O1414     Zr1419   2.356       .  S
O1414     Zr1420   2.360       .  S
O1414      H1449   0.965       .  S
O1415     Zr1418   2.395       .  S
O1415     Zr1435   2.376       .  S
O1415      H1452   0.963       .  S
O1416     Zr1419   2.401       .  S
O1416     Zr1435   2.395       .  S
Zr1417     O1442   2.439       .  S
Zr1417     O1436   2.444       .  S
Zr1417     O1444   2.403       .  S
Zr1417     O1432   2.516       .  S
Zr1417     O1423   2.429       .  S
Zr1417     O1424   2.384       .  S
Zr1417     O1425   2.367       .  S
Zr1417     O1426   2.399       .  S
Zr1418     O1437   2.441       .  S
Zr1418     O1430   2.435       .  S
Zr1418     O1431   2.348       .  S
Zr1418     O1424   2.397       .  S
Zr1418     O1425   2.395       .  S
Zr1419     O1421   2.437       .  S
Zr1419     O1443   2.436       .  S
Zr1419     O1445   2.455       .  S
Zr1419     O1423   2.392       .  S
Zr1419     O1426   2.349       .  S
Zr1420     O1446   2.436       .  S
Zr1420     O1447   2.437       .  S
Zr1420     O1422   2.437       .  S
Zr1420     O1423   2.394       .  S
Zr1420     O1424   2.382       .  S
O1421      H1458   0.990       .  S
O1422      H1453   0.991       .  S
O1422      H1467   0.990       .  S
O1424      H1450   0.963       .  S
O1425     Zr1435   2.398       .  S
O1426     Zr1435   2.343       .  S
O1426      H1451   0.961       .  S
C1427      C1571   1.466       .  S
C1428      C1565   1.466       .  S
C1429      C1473   1.468       .  S
O1430      H1466   0.990       .  S
O1431      C1433   1.262       .  A
O1432      C1433   1.302       .  A
C1433      C1547   1.464       .  S
O1434     Zr1435   2.440       .  S
O1434      H1463   0.991       .  S
Zr1435     O1438   2.439       .  S
Zr1435     O1439   2.437       .  S
Zr1435     O1440   2.433       .  S
O1436      C1441   1.289       .  A
O1437      H1454   0.990       .  S
O1437      H1469   0.990       .  S
O1438      H1455   0.990       .  S
O1439      H1459   0.990       .  S
O1439      H1468   0.990       .  S
O1440      C1441   1.282       .  A
C1441      C1551   1.450       .  S
O1442      H1461   0.991       .  S
O1442      H1465   0.990       .  S
O1443      H1457   0.990       .  S
O1443      H1464   0.989       .  S
O1444      C1448   1.277       .  A
O1445      C1448   1.294       .  A
O1446      H1456   0.990       .  S
O1447      H1460   0.990       .  S
C1448      C1557   1.462       .  S
C1471      N1476   1.372       .  A
N1472      C1473   1.368       .  A
N1474      C1475   1.349       .  A
C1475      C1501   1.462       .  S
C1475      N1476   1.369       .  A
Zr1477     O1478   2.441       .  S
Zr1477     O1479   2.459       .  S
Zr1477     O1480   2.457       .  S
Zr1477     O1483   2.512       .  S
Zr1477     O1485   2.383       .  S
Zr1477     O1486   2.385       .  S
Zr1477     O1487   2.421       .  S
Zr1477     O1488   2.297       .  S
O1478      H1534   0.991       .  S
O1478      H1542   0.990       .  S
O1479      C1499   1.296       .  A
O1480      C1501   1.281       .  A
O1481     Zr1491   2.379       .  S
O1481      C1500   1.268       .  A
O1482     Zr1490   2.408       .  S
O1482      C1501   1.275       .  A
O1483      C1500   1.303       .  A
O1484     Zr1492   2.415       .  S
O1484      C1499   1.274       .  A
O1485     Zr1490   2.364       .  S
O1485     Zr1492   2.365       .  S
O1486     Zr1491   2.397       .  S
O1486     Zr1492   2.405       .  S
O1486      H1521   0.966       .  S
O1487     Zr1490   2.438       .  S
O1487     Zr1507   2.384       .  S
O1487      H1524   0.962       .  S
O1488     Zr1491   2.287       .  S
O1488     Zr1507   2.302       .  S
Zr1489     O1514   2.441       .  S
Zr1489     O1508   2.442       .  S
Zr1489     O1516   2.419       .  S
Zr1489     O1504   2.387       .  S
Zr1489     O1495   2.391       .  S
Zr1489     O1496   2.406       .  S
Zr1489     O1497   2.362       .  S
Zr1489     O1498   2.386       .  S
Zr1490     O1509   2.436       .  S
Zr1490     O1502   2.437       .  S
Zr1490     O1503   2.453       .  S
Zr1490     O1496   2.399       .  S
Zr1490     O1497   2.327       .  S
Zr1491     O1493   2.440       .  S
Zr1491     O1515   2.443       .  S
Zr1491     O1517   2.395       .  S
Zr1491     O1495   2.380       .  S
Zr1491     O1498   2.391       .  S
Zr1492     O1518   2.438       .  S
Zr1492     O1519   2.436       .  S
Zr1492     O1494   2.439       .  S
Zr1492     O1495   2.395       .  S
Zr1492     O1496   2.397       .  S
O1493      H1530   0.991       .  S
O1494      H1525   0.991       .  S
O1494      H1539   0.989       .  S
O1496      H1522   0.966       .  S
O1497     Zr1507   2.339       .  S
O1498     Zr1507   2.390       .  S
O1498      H1523   0.964       .  S
C1499      C1559   1.466       .  S
C1500      C1563   1.474       .  S
O1502      H1538   0.990       .  S
O1503      C1505   1.293       .  A
O1504      C1505   1.274       .  A
C1505      C1569   1.459       .  S
O1506     Zr1507   2.443       .  S
O1506      H1535   0.991       .  S
Zr1507     O1510   2.442       .  S
Zr1507     O1511   2.448       .  S
Zr1507     O1512   2.441       .  S
O1508      C1513   1.290       .  A
O1509      H1526   0.989       .  S
O1509      H1541   0.990       .  S
O1510      H1527   0.991       .  S
O1511      H1531   0.990       .  S
O1511      H1540   0.990       .  S
O1512      C1513   1.281       .  A
C1513      C1553   1.450       .  S
O1514      H1533   0.990       .  S
O1514      H1537   0.991       .  S
O1515      H1529   0.990       .  S
O1515      H1536   0.990       .  S
O1516      C1520   1.284       .  A
O1517      C1520   1.273       .  A
O1518      H1528   0.990       .  S
O1519      H1532   0.990       .  S
C1520      C1545   1.449       .  S
C1543      C1596   1.489       .  S
C1543      N1548   1.363       .  A
N1544      C1545   1.366       .  A
N1546      C1547   1.342       .  A
C1547      N1548   1.368       .  A
C1549      C1601   1.494       .  S
C1549      N1554   1.372       .  A
N1550      C1551   1.367       .  A
N1552      C1553   1.332       .  A
C1553      N1554   1.369       .  A
C1555      C1595   1.487       .  S
C1555      N1556   1.373       .  A
C1555      N1560   1.376       .  A
N1556      C1557   1.364       .  A
C1557      N1558   1.334       .  A
N1558      C1559   1.331       .  A
C1559      N1560   1.370       .  A
C1561      C1609   1.504       .  S
C1561      N1562   1.373       .  A
C1561      N1566   1.372       .  A
N1562      C1563   1.376       .  A
C1563      N1564   1.342       .  A
N1564      C1565   1.345       .  A
C1565      N1566   1.366       .  A
C1567      C1597   1.493       .  S
C1567      N1568   1.372       .  A
N1568      C1569   1.366       .  A
C1569      N1570   1.337       .  A
C1571      N1572   1.370       .  A
Zr1573     O1574   2.438       .  S
Zr1573     O1576   2.507       .  S
Zr1573     O1583   2.427       .  S
Zr1573     O1584   2.412       .  S
O1574      H1630   0.990       .  S
O1574      H1638   0.991       .  S
O1575      C1595   1.296       .  A
O1577     Zr1821   2.409   1_554  S
O1577      C1596   1.270       .  A
O1578     Zr1586   2.451   1_554  S
O1578      C1597   1.288       .  A
O1579      C1596   1.296       .  A
O1580     Zr1588   2.409       .  S
O1580      C1595   1.277       .  A
O1581     Zr1588   2.383       .  S
O1582     Zr1588   2.376       .  S
O1582      H1617   0.967       .  S
O1583     Zr1837   2.378   1_554  S
O1583      H1620   0.964       .  S
O1584     Zr1837   2.382   1_554  S
Zr1585     O1610   2.438       .  S
Zr1585     O1612   2.536       .  S
Zr1585     O1591   2.407       .  S
Zr1585     O1592   2.443       .  S
Zr1586     O1839   2.435       .  S
Zr1586     O1598   2.435   1_556  S
Zr1586     O1833   2.460       .  S
Zr1587     O1589   2.436       .  S
Zr1587     O1611   2.440       .  S
Zr1587     O1811   2.409       .  S
Zr1587     O1613   2.416       .  S
Zr1588     O1614   2.437       .  S
Zr1588     O1849   2.437   1_554  S
Zr1588     O1590   2.439   1_554  S
Zr1588     O1825   2.381   1_554  S
Zr1588     O1826   2.391   1_554  S
O1589      H1626   0.990       .  S
O1590      H1621   0.991   1_556  S
O1590      H1635   0.990   1_556  S
O1591     Zr1822   2.382       .  S
O1592     Zr1822   2.390       .  S
O1592      H1618   0.965       .  S
O1593     Zr1603   2.388       .  S
O1594     Zr1603   2.400       .  S
O1594      H1619   0.965       .  S
O1598      H1634   0.990       .  S
O1599     Zr1820   2.459       .  S
O1599      C1601   1.290       .  A
O1600      C1601   1.297       .  A
O1602     Zr1837   2.442   1_554  S
O1602      H1631   0.990       .  S
Zr1603     O1836   2.442       .  S
Zr1603     O1606   2.439       .  S
Zr1603     O1607   2.446       .  S
Zr1603     O1608   2.381       .  S
Zr1603     O1817   2.379       .  S
Zr1603     O1818   2.381       .  S
O1604      C1609   1.305       .  A
O1605     Zr1820   2.434       .  S
O1605      H1622   0.990       .  S
O1606      H1623   0.991       .  S
O1607      H1627   0.990       .  S
O1607      H1636   0.989       .  S
O1608      C1609   1.267       .  A
O1610      H1629   0.990       .  S
O1610      H1633   0.990       .  S
O1611      H1625   0.990       .  S
O1611      H1866   0.991       .  S
O1613      C1616   1.280       .  A
O1614      H1624   0.990       .  S
O1615     Zr1822   2.437       .  S
O1615      H1628   0.990       .  S
H1632      O1845   0.991   1_554  S
Zr1639     O1640   2.438       .  S
Zr1639     O1641   2.462       .  S
Zr1639     O1642   2.538       .  S
Zr1639     O1645   2.421       .  S
Zr1639     O1647   2.371       .  S
Zr1639     O1648   2.409       .  S
Zr1639     O1649   2.386       .  S
Zr1639     O1650   2.429       .  S
O1640      H1696   0.990       .  S
O1640      H1704   0.990       .  S
O1641      C1661   1.296       .  A
O1642      C1663   1.307       .  A
O1643     Zr1653   2.444       .  S
O1643      C1662   1.284       .  A
O1644     Zr1652   2.354       .  S
O1644      C1663   1.266       .  A
O1645      C1662   1.277       .  A
O1646     Zr1654   2.415       .  S
O1646      C1661   1.277       .  A
O1647     Zr1652   2.390       .  S
O1647     Zr1654   2.407       .  S
O1648     Zr1653   2.356       .  S
O1648     Zr1654   2.361       .  S
O1648      H1683   0.965       .  S
O1649     Zr1652   2.396       .  S
O1649     Zr1669   2.374       .  S
O1649      H1686   0.963       .  S
O1650     Zr1653   2.400       .  S
O1650     Zr1669   2.393       .  S
Zr1651     O1676   2.439       .  S
Zr1651     O1670   2.446       .  S
Zr1651     O1678   2.405       .  S
Zr1651     O1666   2.518       .  S
Zr1651     O1657   2.429       .  S
Zr1651     O1658   2.383       .  S
Zr1651     O1659   2.366       .  S
Zr1651     O1660   2.399       .  S
Zr1652     O1671   2.440       .  S
Zr1652     O1664   2.438       .  S
Zr1652     O1665   2.349       .  S
Zr1652     O1658   2.397       .  S
Zr1652     O1659   2.395       .  S
Zr1653     O1655   2.437       .  S
Zr1653     O1677   2.436       .  S
Zr1653     O1679   2.454       .  S
Zr1653     O1657   2.392       .  S
Zr1653     O1660   2.350       .  S
Zr1654     O1680   2.436       .  S
Zr1654     O1681   2.437       .  S
Zr1654     O1656   2.437       .  S
Zr1654     O1657   2.393       .  S
Zr1654     O1658   2.381       .  S
O1655      H1692   0.990       .  S
O1656      H1687   0.991       .  S
O1656      H1701   0.990       .  S
O1658      H1684   0.963       .  S
O1659     Zr1669   2.399       .  S
O1660     Zr1669   2.342       .  S
O1660      H1685   0.961       .  S
C1661      C1805   1.464       .  S
C1662      C1799   1.466       .  S
C1663      C1707   1.468       .  S
O1664      H1700   0.990       .  S
O1665      C1667   1.263       .  A
O1666      C1667   1.302       .  A
C1667      C1781   1.465       .  S
O1668     Zr1669   2.439       .  S
O1668      H1697   0.991       .  S
Zr1669     O1672   2.438       .  S
Zr1669     O1673   2.438       .  S
Zr1669     O1674   2.432       .  S
O1670      C1675   1.290       .  A
O1671      H1688   0.990       .  S
O1671      H1703   0.990       .  S
O1672      H1689   0.990       .  S
O1673      H1693   0.990       .  S
O1673      H1702   0.990       .  S
O1674      C1675   1.282       .  A
C1675      C1785   1.451       .  S
O1676      H1695   0.991       .  S
O1676      H1699   0.990       .  S
O1677      H1691   0.990       .  S
O1677      H1698   0.989       .  S
O1678      C1682   1.277       .  A
O1679      C1682   1.294       .  A
O1680      H1690   0.990       .  S
O1681      H1694   0.990       .  S
C1682      C1791   1.462       .  S
C1705      N1710   1.372       .  A
N1706      C1707   1.368       .  A
N1708      C1709   1.349       .  A
C1709      C1735   1.462       .  S
C1709      N1710   1.369       .  A
Zr1711     O1712   2.441       .  S
Zr1711     O1713   2.462       .  S
Zr1711     O1714   2.456       .  S
Zr1711     O1717   2.513       .  S
Zr1711     O1719   2.384       .  S
Zr1711     O1720   2.385       .  S
Zr1711     O1721   2.422       .  S
Zr1711     O1722   2.297       .  S
O1712      H1768   0.991       .  S
O1712      H1776   0.990       .  S
O1713      C1733   1.296       .  A
O1714      C1735   1.281       .  A
O1715     Zr1725   2.379       .  S
O1715      C1734   1.268       .  A
O1716     Zr1724   2.409       .  S
O1716      C1735   1.275       .  A
O1717      C1734   1.303       .  A
O1718     Zr1726   2.414       .  S
O1718      C1733   1.273       .  A
O1719     Zr1724   2.365       .  S
O1719     Zr1726   2.366       .  S
O1720     Zr1725   2.396       .  S
O1720     Zr1726   2.407       .  S
O1720      H1755   0.966       .  S
O1721     Zr1724   2.439       .  S
O1721     Zr1741   2.383       .  S
O1721      H1758   0.962       .  S
O1722     Zr1725   2.286       .  S
O1722     Zr1741   2.302       .  S
Zr1723     O1748   2.441       .  S
Zr1723     O1742   2.440       .  S
Zr1723     O1750   2.421       .  S
Zr1723     O1738   2.385       .  S
Zr1723     O1729   2.388       .  S
Zr1723     O1730   2.406       .  S
Zr1723     O1731   2.362       .  S
Zr1723     O1732   2.384       .  S
Zr1724     O1743   2.436       .  S
Zr1724     O1736   2.437       .  S
Zr1724     O1737   2.455       .  S
Zr1724     O1730   2.399       .  S
Zr1724     O1731   2.327       .  S
Zr1725     O1727   2.440       .  S
Zr1725     O1749   2.442       .  S
Zr1725     O1751   2.391       .  S
Zr1725     O1729   2.379       .  S
Zr1725     O1732   2.391       .  S
Zr1726     O1752   2.437       .  S
Zr1726     O1753   2.436       .  S
Zr1726     O1728   2.439       .  S
Zr1726     O1729   2.393       .  S
Zr1726     O1730   2.396       .  S
O1727      H1764   0.991       .  S
O1728      H1759   0.991       .  S
O1728      H1773   0.989       .  S
O1730      H1756   0.966       .  S
O1731     Zr1741   2.338       .  S
O1732     Zr1741   2.389       .  S
O1732      H1757   0.965       .  S
C1733      C1793   1.467       .  S
C1734      C1797   1.474       .  S
O1736      H1772   0.990       .  S
O1737      C1739   1.294       .  A
O1738      C1739   1.274       .  A
C1739      C1803   1.459       .  S
O1740     Zr1741   2.442       .  S
O1740      H1769   0.990       .  S
Zr1741     O1744   2.442       .  S
Zr1741     O1745   2.447       .  S
Zr1741     O1746   2.442       .  S
O1742      C1747   1.289       .  A
O1743      H1760   0.989       .  S
O1743      H1775   0.990       .  S
O1744      H1761   0.991       .  S
O1745      H1765   0.991       .  S
O1745      H1774   0.990       .  S
O1746      C1747   1.281       .  A
C1747      C1787   1.449       .  S
O1748      H1767   0.990       .  S
O1748      H1771   0.991       .  S
O1749      H1763   0.990       .  S
O1749      H1770   0.990       .  S
O1750      C1754   1.284       .  A
O1751      C1754   1.272       .  A
O1752      H1762   0.990       .  S
O1753      H1766   0.990       .  S
C1754      C1779   1.448       .  S
C1777      C1830   1.489       .  S
C1777      N1782   1.364       .  A
N1778      C1779   1.367       .  A
N1780      C1781   1.342       .  A
C1781      N1782   1.369       .  A
C1783      C1835   1.492       .  S
C1783      N1788   1.372       .  A
N1784      C1785   1.367       .  A
N1786      C1787   1.332       .  A
C1787      N1788   1.368       .  A
C1789      C1829   1.488       .  S
C1789      N1790   1.373       .  A
C1789      N1794   1.376       .  A
N1790      C1791   1.364       .  A
C1791      N1792   1.335       .  A
N1792      C1793   1.331       .  A
C1793      N1794   1.370       .  A
C1795      C1843   1.504       .  S
C1795      N1796   1.373       .  A
C1795      N1800   1.371       .  A
N1796      C1797   1.377       .  A
C1797      N1798   1.341       .  A
N1798      C1799   1.345       .  A
C1799      N1800   1.366       .  A
C1801      C1831   1.494       .  S
C1801      N1802   1.372       .  A
N1802      C1803   1.367       .  A
C1803      N1804   1.337       .  A
C1805      N1806   1.369       .  A
Zr1807     O1808   2.438       .  S
Zr1807     O1810   2.509       .  S
Zr1807     O1817   2.427       .  S
Zr1807     O1818   2.412       .  S
O1808      H1864   0.990       .  S
O1808      H1872   0.990       .  S
O1809      C1829   1.296       .  A
O1811      C1830   1.269       .  A
O1812     Zr1820   2.453       .  S
O1812      C1831   1.288       .  A
O1813      C1830   1.296       .  A
O1814     Zr1822   2.411       .  S
O1814      C1829   1.277       .  A
O1815     Zr1822   2.382       .  S
O1816     Zr1822   2.376       .  S
O1816      H1851   0.967       .  S
O1817      H1854   0.964       .  S
Zr1819     O1844   2.438       .  S
Zr1819     O1846   2.537       .  S
Zr1819     O1825   2.406       .  S
Zr1819     O1826   2.443       .  S
Zr1820     O1832   2.435       .  S
Zr1821     O1823   2.437       .  S
Zr1821     O1845   2.439       .  S
Zr1821     O1847   2.411       .  S
Zr1822     O1848   2.437       .  S
Zr1822     O1824   2.438       .  S
O1823      H1860   0.990   1_556  S
O1824      H1855   0.990       .  S
O1824      H1869   0.990       .  S
O1826      H1852   0.965       .  S
O1827     Zr1837   2.388       .  S
O1828     Zr1837   2.400       .  S
O1828      H1853   0.965       .  S
O1832      H1868   0.990       .  S
O1833      C1835   1.290       .  A
O1834      C1835   1.297       .  A
O1836      H1865   0.990       .  S
Zr1837     O1840   2.439   1_556  S
Zr1837     O1841   2.446       .  S
Zr1837     O1842   2.380       .  S
O1838      C1843   1.304       .  A
O1839      H1856   0.990       .  S
O1840      H1857   0.991   1_554  S
O1841      H1861   0.990       .  S
O1841      H1870   0.989       .  S
O1842      C1843   1.266       .  A
O1844      H1863   0.990       .  S
O1844      H1867   0.990       .  S
O1845      H1859   0.990   1_556  S
O1847      C1850   1.279       .  A
O1848      H1858   0.990       .  S
O1849      H1862   0.990       .  S
