geometry optimzed in LAMMPS
_audit_creation_date              2020-11-30 
_audit_creation_method            'lammps2cif' 
_symmetry_space_group_name_H-M    'P1' 
_symmetry_Int_Tables_number       1 
_symmetry_cell_setting            triclinic 
loop_ 
_symmetry_equiv_pos_as_xyz 
  x,y,z 
_cell_length_a                    43.84799699 
_cell_length_b                    43.779246766649436 
_cell_length_c                    46.93526672803091 
_cell_angle_alpha                 91.47754578055547 
_cell_angle_beta                  88.48036941658235 
_cell_angle_gamma                 117.73207741533214 
loop_ 
_atom_site_label 
_atom_site_type_symbol 
_atom_site_fract_x 
_atom_site_fract_y 
_atom_site_fract_z 
_atom_site_charge 
O1          O  0.35333816  0.10643956  0.02434085    -0.80500
O2          O  0.35824143  0.23628315  0.96806549    -0.65200
O3          O  0.34414960  0.16594874  0.02086917    -1.11800
C4          C  0.24382716  0.09975839  0.96652253     1.06400
O5          O  0.30395050  0.22617938  0.97141217    -0.78400
O6          O  0.25931104  0.17555872  0.00490141    -0.66000
Ni7        Ni  0.38102893  0.15612951  0.03028178     1.34900
C8          C  0.25939920  0.15894369  0.02656766     0.85100
O9          O  0.39109688  0.23557796  0.01524984    -0.78900
O10         O  0.41127436  0.20440468  0.03844070    -0.89200
C11         C  0.33489978  0.24478150  0.96323424     0.84700
O12         O  0.40208778  0.16099091  0.99321216    -0.67400
O13         O  0.24553554  0.12888859  0.96112971    -0.86700
C14         C  0.40161039  0.17722717  0.97129366     0.85500
C15         C  0.41246256  0.23308358  0.03174870     1.07100
H16         H  0.32089599  0.16058046  0.95755773     0.38900
O17         O  0.31346402  0.16659815  0.97546891    -1.09300
O18         O  0.27508767  0.14078784  0.02717844    -0.66000
Ni19       Ni  0.30485179  0.13079499  0.00187712     1.26300
O20         O  0.38300786  0.19234007  0.96953729    -0.66200
O21         O  0.26577800  0.09620129  0.98156475    -0.78500
C22         C  0.32268772  0.08858704  0.03403343     0.84900
O23         O  0.29928674  0.09686648  0.02900554    -0.65700
Ni24       Ni  0.27661359  0.17687957  0.96713290     1.27400
Ni25       Ni  0.35258778  0.20159425  0.99464689     1.26100
H26         H  0.33660373  0.17209042  0.03865884     0.39500
O27         O  0.27468544  0.19823724  0.47198919    -0.80500
O28         O  0.40378487  0.19966766  0.52863838    -0.65200
O29         O  0.33311840  0.18709265  0.47685821    -1.11800
C30         C  0.26574184  0.08869710  0.53392987     1.06400
O31         O  0.39256520  0.14484990  0.52559125    -0.78400
O32         O  0.33685890  0.09737327  0.49465061    -0.66000
Ni33       Ni  0.32412504  0.22509378  0.46947175     1.34900
C34         C  0.32026527  0.09792871  0.47303469     0.85100
O35         O  0.40409004  0.23273750  0.48144485    -0.78900
O36         O  0.37241355  0.25634860  0.46497838    -0.89200
C37         C  0.41200738  0.17613200  0.53331040     0.84700
O38         O  0.32415740  0.23993181  0.50787872    -0.67400
O39         O  0.29422045  0.08924960  0.54015508    -0.86700
C40         C  0.34287795  0.24140395  0.52850672     0.85500
C41         C  0.40116556  0.25645799  0.46852093     1.07100
H42         H  0.32855463  0.16455485  0.54016645     0.38900
O43         O  0.33389198  0.15636701  0.52234073    -1.09300
O44         O  0.30571921  0.11708678  0.47147814    -0.66000
Ni45       Ni  0.29790333  0.14849602  0.49657673     1.26300
O46         O  0.36178544  0.22639981  0.52802101    -0.66200
O47         O  0.26359031  0.11051543  0.51768158    -0.78500
C48         C  0.25568162  0.16712104  0.46435365     0.84900
O49         O  0.26317523  0.14331140  0.47024435    -0.65700
Ni50       Ni  0.34261756  0.11860988  0.53168061     1.27400
Ni51       Ni  0.36927346  0.19478871  0.50255077     1.26100
H52         H  0.33829427  0.17938905  0.45874046     0.39500
O53         O  0.38688645  0.03933630  0.72133418    -0.74000
O54         O  0.34955281  0.47368170  0.77961198    -0.74000
O55         O  0.38465687  0.04142340  0.77960321    -0.74100
O56         O  0.35200318  0.47114638  0.72160251    -0.74100
O57         O  0.40061867  0.46686361  0.72460395    -0.74100
O58         O  0.43385975  0.03795413  0.77965934    -0.74100
O59         O  0.39973792  0.47229965  0.78188624    -0.74000
O60         O  0.43472458  0.03340808  0.72185718    -0.74100
Ni61       Ni  0.36548278  0.00577798  0.75053318     1.25400
Ni62       Ni  0.41759417  0.00101263  0.75193926     1.25400
C63         C  0.41691236  0.04655437  0.71134871     0.88200
C64         C  0.36868818  0.46224724  0.79046883     0.88100
C65         C  0.41498048  0.05122848  0.78922757     0.88100
C66         C  0.37093350  0.45716491  0.71385309     0.88300
O67         O  0.09832247  0.06416778  0.71898262    -0.74000
O68         O  0.06660080  0.09894319  0.78168572    -0.74000
O69         O  0.06375018  0.10143341  0.72410504    -0.74100
O70         O  0.10152703  0.06210148  0.77631444    -0.74100
O71         O  0.15005779  0.11197931  0.77806250    -0.74100
O72         O  0.11446546  0.14892439  0.72163956    -0.74100
O73         O  0.11475858  0.14911629  0.78011695    -0.74000
O74         O  0.14933267  0.11134054  0.71985335    -0.74100
Ni75       Ni  0.08082491  0.08002452  0.75028759     1.25400
Ni76       Ni  0.13399873  0.13219240  0.74989689     1.25400
C77         C  0.12903754  0.08157560  0.70922701     0.88200
C78         C  0.08517396  0.12951100  0.79137303     0.88100
C79         C  0.08325168  0.13113787  0.71353949     0.88100
C80         C  0.13167269  0.08085206  0.78628082     0.88300
O81         O  0.03791439  0.43884647  0.77860535    -0.74000
O82         O  0.47667449  0.41046294  0.71828941    -0.74000
O83         O  0.47088965  0.41005242  0.77611124    -0.74100
O84         O  0.04244010  0.43766762  0.72093097    -0.74100
O85         O  0.03912097  0.38520912  0.72097897    -0.74100
O86         O  0.46808480  0.35787206  0.77692133    -0.74100
O87         O  0.47293607  0.35788957  0.71903555    -0.74000
O88         O  0.03687732  0.38742440  0.77938164    -0.74100
Ni89       Ni  0.00585648  0.42523607  0.74864879     1.25400
Ni90       Ni  0.00316584  0.36947995  0.74974889     1.25400
C91         C  0.04726842  0.41811728  0.78945474     0.88200
C92         C  0.46474088  0.37965533  0.70832682     0.88100
C93         C  0.45794997  0.37951444  0.78612305     0.88100
C94         C  0.05230628  0.41596831  0.71141147     0.88300
C95         C  0.48121083  0.16816777  0.57499163     0.02700
C96         C  0.01781360  0.18705418  0.57441188     0.02700
C97         C  0.03534188  0.18528983  0.59877635    -0.17900
C98         C  0.01828146  0.16229648  0.62089142     0.02700
C99         C  0.48102483  0.14220418  0.62062335     0.02700
C100        C  0.46371075  0.14502539  0.59698086    -0.17900
H101        H  0.43628448  0.12794934  0.59516222     0.04700
H102        H  0.06281190  0.20200923  0.60056776     0.04700
C103        C  0.20151352  0.01180875  0.57835643     0.02700
C104        C  0.18095222  0.47491960  0.57523365     0.02700
C105        C  0.15785821  0.45748417  0.59776868    -0.17900
C106        C  0.15147814  0.47552513  0.62028622     0.02700
C107        C  0.17049917  0.01179459  0.62257429     0.02700
C108        C  0.19399574  0.02946487  0.60068064    -0.17900
H109        H  0.20650512  0.05743342  0.60107654     0.04700
H110        H  0.14405158  0.42955070  0.59765035     0.04700
C111        C  0.30952632  0.33531628  0.92288853     0.02700
C112        C  0.32748611  0.31533452  0.92069909     0.02700
C113        C  0.35083889  0.32090802  0.89772523    -0.17900
C114        C  0.35680481  0.34576631  0.87717575     0.02700
C115        C  0.33805251  0.36463293  0.87884614     0.02700
C116        C  0.31562034  0.36001936  0.90189513    -0.17900
H117        H  0.30332334  0.37642953  0.90325263     0.04700
H118        H  0.36445855  0.30571774  0.89551945     0.04700
C119        C  0.31298778  0.32594517  0.58009984     0.02700
C120        C  0.33428493  0.30948728  0.57820937     0.02700
C121        C  0.36028470  0.31841849  0.59847443    -0.17900
C122        C  0.36449308  0.34194858  0.62071623     0.02700
C123        C  0.34205123  0.35684590  0.62343813     0.02700
C124        C  0.31685375  0.34891474  0.60292061    -0.17900
H125        H  0.29944604  0.36009788  0.60526644     0.04700
H126        H  0.37849546  0.30823628  0.59662305     0.04700
C127        C  0.16737782  0.48002898  0.92665509     0.02700
C128        C  0.19012711  0.01695768  0.92397178     0.02700
C129        C  0.18813844  0.03325770  0.89894568    -0.17900
C130        C  0.16494059  0.01508850  0.87718993     0.02700
C131        C  0.14172174  0.47862266  0.88078753     0.02700
C132        C  0.14419413  0.46190094  0.90492974    -0.17900
H133        H  0.12696920  0.43453947  0.90728078     0.04700
H134        H  0.20458657  0.06072304  0.89649809     0.04700
C135        C  0.47735800  0.18279180  0.92340184     0.02700
C136        C  0.01404922  0.20250680  0.92176660     0.02700
C137        C  0.03274895  0.19501419  0.90026224    -0.17900
C138        C  0.01623104  0.16984824  0.87911448     0.02700
C139        C  0.47991689  0.15224640  0.87930818     0.02700
C140        C  0.46104323  0.15803351  0.90157388    -0.17900
H141        H  0.43330450  0.14248847  0.90204906     0.04700
H142        H  0.06065761  0.20894849  0.89986158     0.04700
O143        O  0.10756346  0.35481543  0.47612572    -0.80500
O144        O  0.23688791  0.35652042  0.52963196    -0.65200
O145        O  0.16571639  0.34305227  0.47832930    -1.11800
C146        C  0.09933520  0.24243078  0.53172730     1.06400
O147        O  0.22560545  0.30164626  0.52834549    -0.78400
O148        O  0.17651398  0.26051271  0.49252363    -0.66000
Ni149      Ni  0.15715492  0.38076077  0.46879145     1.34900
C150        C  0.15807008  0.25945578  0.47185068     0.85100
O151        O  0.23589340  0.38886901  0.48245056    -0.78900
O152        O  0.20547265  0.40977970  0.45925521    -0.89200
C153        C  0.24468758  0.33293201  0.53535798     0.84700
O154        O  0.16362626  0.40243393  0.50560979    -0.67400
O155        O  0.12823668  0.24295514  0.53530552    -0.86700
C156        C  0.17945955  0.40120759  0.52747646     0.85500
C157        C  0.23389173  0.41022751  0.46560014     1.07100
H158        H  0.16195663  0.32009259  0.54191820     0.38900
O159        O  0.16701560  0.31239168  0.52369876    -1.09300
O160        O  0.13848807  0.27368345  0.47255083    -0.66000
Ni161      Ni  0.13060693  0.30461898  0.49832144     1.26300
O162        O  0.19386769  0.38197059  0.52908480    -0.66200
O163        O  0.09611444  0.26626515  0.51927321    -0.78500
C164        C  0.08757603  0.32355104  0.46875967     0.84900
O165        O  0.09572278  0.29981232  0.47272884    -0.65700
Ni166      Ni  0.17631871  0.27459987  0.53097419     1.27400
Ni167      Ni  0.20186398  0.35098586  0.50374453     1.26100
H168        H  0.17096314  0.33485450  0.46049736     0.39500
O169        O  0.19668835  0.27515447  0.02569310    -0.80500
O170        O  0.20227784  0.40638657  0.97378286    -0.65200
O171        O  0.18784052  0.33466808  0.02485818    -1.11800
C172        C  0.08918338  0.26953448  0.96710179     1.06400
O173        O  0.14777348  0.39579774  0.97857051    -0.78400
O174        O  0.09832358  0.33999869  0.00745480    -0.66000
Ni175      Ni  0.22430731  0.32376015  0.03267019     1.34900
C176        C  0.09921449  0.32396089  0.02933928     0.85100
O177        O  0.23644121  0.40504835  0.02011802    -0.78900
O178        O  0.25530360  0.37123897  0.04067348    -0.89200
C179        C  0.17877554  0.41493653  0.97005831     0.84700
O180        O  0.24305501  0.32738765  0.99523264    -0.67400
O181        O  0.09039425  0.29836345  0.96074026    -0.86700
C182        C  0.24260141  0.34400620  0.97372549     0.85500
C183        C  0.25788714  0.40074183  0.03531970     1.07100
H184        H  0.16492484  0.33104805  0.96199980     0.38900
O185        O  0.15730027  0.33676555  0.97991435    -1.09300
O186        O  0.11825670  0.30929592  0.03093526    -0.66000
Ni187      Ni  0.14853054  0.30037847  0.00526286     1.26300
O188        O  0.22632434  0.36166281  0.97334165    -0.66200
O189        O  0.11006301  0.26693534  0.98411401    -0.78500
C190        C  0.16629564  0.25675645  0.03507453     0.84900
O191        O  0.14269451  0.26507055  0.03105250    -0.65700
Ni192      Ni  0.12038535  0.34650398  0.97069367     1.27400
Ni193      Ni  0.19682371  0.37127145  0.99945410     1.26100
H194        H  0.18042571  0.34023873  0.04295651     0.39500
O195        O  0.46145620  0.12255180  0.22240001    -0.74000
O196        O  0.03141906  0.15256263  0.27930245    -0.74000
O197        O  0.03456200  0.15409868  0.22140633    -0.74100
O198        O  0.46032882  0.12135463  0.28054519    -0.74100
O199        O  0.45593594  0.06846002  0.27762782    -0.74100
O200        O  0.03331344  0.10250667  0.22166629    -0.74100
O201        O  0.02682976  0.09960649  0.27905992    -0.74000
O202        O  0.45929365  0.07051694  0.22032897    -0.74100
Ni203      Ni  0.49575561  0.13825167  0.25134012     1.25400
Ni204      Ni  0.49217092  0.08200688  0.24963747     1.25400
C205        C  0.44948715  0.09199098  0.21182623     0.88200
C206        C  0.03926047  0.13028700  0.28944104     0.88100
C207        C  0.04587440  0.13332280  0.21243335     0.88100
C208        C  0.44671107  0.08996024  0.28869181     0.88300
O209        O  0.40799291  0.43666467  0.27960086    -0.74000
O210        O  0.43737778  0.39376041  0.22080041    -0.74000
O211        O  0.40888974  0.43678826  0.22151009    -0.74100
O212        O  0.43703299  0.39405259  0.27793753    -0.74100
O213        O  0.38462546  0.34863031  0.27841417    -0.74100
O214        O  0.35621743  0.39195349  0.22139545    -0.74100
O215        O  0.38474247  0.34858319  0.22023996    -0.74000
O216        O  0.35554248  0.39142248  0.27936637    -0.74100
Ni217      Ni  0.42458014  0.41697716  0.24996176     1.25400
Ni218      Ni  0.36835577  0.36850096  0.24984319     1.25400
C219        C  0.37708679  0.42082372  0.28955168     0.88200
C220        C  0.41594404  0.36407045  0.21107634     0.88100
C221        C  0.37826792  0.42140401  0.21172724     0.88100
C222        C  0.41571395  0.36436986  0.28735966     0.88300
C223        C  0.31928066  0.02433296  0.42513622     0.02700
C224        C  0.30146613  0.48636051  0.42158273     0.02700
C225        C  0.31084749  0.46888889  0.40030847    -0.17900
C226        C  0.33574865  0.48683722  0.37929747     0.02700
C227        C  0.35128371  0.02586501  0.38099640     0.02700
C228        C  0.34339885  0.04278499  0.40350104    -0.17900
H229        H  0.35646431  0.07072638  0.40409911     0.04700
H230        H  0.29833012  0.44092737  0.39974191     0.04700
O231        O  0.10770701  0.46192794  0.27892943    -0.74000
O232        O  0.14318781  0.02762538  0.21845180    -0.74000
O233        O  0.14372555  0.03201006  0.27643641    -0.74100
O234        O  0.10528368  0.45665879  0.22103767    -0.74100
O235        O  0.05635034  0.46059795  0.22276849    -0.74100
O236        O  0.09520735  0.03675647  0.27534629    -0.74100
O237        O  0.09342697  0.02995740  0.21801336    -0.74000
O238        O  0.05987606  0.46790707  0.28055863    -0.74100
Ni239      Ni  0.12678895  0.49374032  0.24825042     1.25400
Ni240      Ni  0.07470366  0.49865704  0.24927247     1.25400
C241        C  0.07834834  0.45504114  0.29025498     0.88200
C242        C  0.12365009  0.03875567  0.20783132     0.88100
C243        C  0.12542822  0.04638218  0.28493059     0.88100
C244        C  0.07462565  0.44700061  0.21235771     0.88300
C245        C  0.32990527  0.01888483  0.07595932     0.02700
C246        C  0.31673482  0.48474974  0.07560818     0.02700
C247        C  0.32113945  0.46937227  0.10032224    -0.17900
C248        C  0.34492476  0.48879556  0.12129757     0.02700
C249        C  0.35664953  0.02358570  0.12207334     0.02700
C250        C  0.35072943  0.03884036  0.09843964    -0.17900
H251        H  0.36296825  0.06677357  0.09732923     0.04700
H252        H  0.30642513  0.44176117  0.10314504     0.04700
C253        C  0.18806537  0.17604251  0.41923789     0.02700
C254        C  0.16768552  0.19350607  0.42105322     0.02700
C255        C  0.14289194  0.18672919  0.40009210    -0.17900
C256        C  0.13860760  0.16400612  0.37732599     0.02700
C257        C  0.15992591  0.14779337  0.37473074     0.02700
C258        C  0.18414801  0.15381782  0.39583991    -0.17900
H259        H  0.20071900  0.14168814  0.39351799     0.04700
H260        H  0.12527744  0.19763246  0.40194923     0.04700
C261        C  0.19358230  0.16917037  0.07729131     0.02700
C262        C  0.17667117  0.19000135  0.07939108     0.02700
C263        C  0.15473391  0.18642253  0.10286395    -0.17900
C264        C  0.14777767  0.16158251  0.12357359     0.02700
C265        C  0.16356424  0.13987011  0.12089153     0.02700
C266        C  0.18637484  0.14407315  0.09816308    -0.17900
H267        H  0.19685892  0.12610002  0.09616607     0.04700
H268        H  0.14325387  0.20355944  0.10541751     0.04700
C269        C  0.48282364  0.30988453  0.42511896     0.02700
C270        C  0.02052507  0.33389181  0.42691930     0.02700
C271        C  0.03719357  0.35707978  0.40479804    -0.20700
C272        C  0.01924860  0.35830957  0.38098685     0.02700
C273        C  0.48135143  0.33331665  0.37833878     0.02700
C274        C  0.46528146  0.30955828  0.40015041    -0.17900
H275        H  0.43832676  0.29100304  0.39796916     0.04700
H276        H  0.06433143  0.37529931  0.40659289     0.04700
C277        C  0.02269044  0.31680309  0.07700225     0.02700
C278        C  0.48637956  0.29636472  0.07801375     0.02700
C279        C  0.46682843  0.29989440  0.10085349    -0.17900
C280        C  0.48211190  0.32446477  0.12248694     0.02700
C281        C  0.01806351  0.34510199  0.12166347     0.02700
C282        C  0.03800442  0.34110809  0.09934616    -0.17900
H283        H  0.06544607  0.35841620  0.09869243     0.04700
H284        H  0.43928324  0.28296427  0.10203503     0.04700
C285        C  0.06570487  0.38743160  0.34435002    -0.12900
C286        C  0.03740941  0.38588191  0.36011279     0.09200
C287        C  0.02472718  0.40912636  0.35444555    -0.12900
C288        C  0.03826163  0.43172548  0.33180181    -0.12900
C289        C  0.06545298  0.43220523  0.31498776     0.09200
C290        C  0.07974603  0.41057294  0.32192805    -0.12900
H291        H  0.07594298  0.36980397  0.34865656     0.13200
H292        H  0.50016567  0.40793890  0.36749477     0.13200
H293        H  0.02714599  0.44854898  0.32726851     0.13200
H294        H  0.10094809  0.41071865  0.30945778     0.13200
C295        C  0.03511691  0.42063730  0.17146248    -0.12900
C296        C  0.06065023  0.42098452  0.18909764     0.09200
C297        C  0.07386499  0.39770406  0.18319321    -0.12900
C298        C  0.06082435  0.37366448  0.16069113    -0.12900
C299        C  0.03478656  0.37292159  0.14348631     0.09200
C300        C  0.02287605  0.39736888  0.14855881    -0.12900
H301        H  0.02498487  0.43876742  0.17507948     0.13200
H302        H  0.09383166  0.39769704  0.19627927     0.13200
H303        H  0.07042923  0.35511059  0.15713216     0.13200
H304        H  0.50246153  0.39892723  0.13385439     0.13200
C305        C  0.14509466  0.10721252  0.30068212    -0.12900
C306        C  0.13871409  0.07361138  0.30683877     0.09200
C307        C  0.14277425  0.06541724  0.33466129    -0.12900
C308        C  0.15125350  0.09011067  0.35654601    -0.12900
C309        C  0.15634112  0.12349241  0.35076563     0.09200
C310        C  0.15472257  0.13225874  0.32239024    -0.12900
H311        H  0.14213278  0.11386759  0.27921855     0.13200
H312        H  0.13771888  0.03944343  0.33967198     0.13200
H313        H  0.15225712  0.08268751  0.37819710     0.13200
H314        H  0.15924039  0.15802633  0.31729611     0.13200
C315        C  0.17018811  0.08541521  0.17912654    -0.12900
C316        C  0.13530063  0.06183527  0.18333847     0.09200
C317        C  0.11063243  0.06156981  0.16473625    -0.12900
C318        C  0.12030484  0.08574273  0.14327042    -0.12900
C319        C  0.15468247  0.11101508  0.14043755     0.09200
C320        C  0.17984594  0.11005451  0.15775367    -0.12900
H321        H  0.18960131  0.08588211  0.19318034     0.13200
H322        H  0.08365135  0.04313726  0.16724037     0.13200
H323        H  0.10073029  0.08579921  0.12969523     0.13200
H324        H  0.20656391  0.12934861  0.15561851     0.13200
C325        C  0.41320373  0.34291611  0.33661164    -0.12900
C326        C  0.42782720  0.34895679  0.30908661     0.09200
C327        C  0.45742477  0.34501099  0.30359522    -0.12900
C328        C  0.47307342  0.33666625  0.32557947    -0.12900
C329        C  0.46050307  0.33399130  0.35380539     0.09200
C330        C  0.42956012  0.33575815  0.35885252    -0.12900
H331        H  0.39055138  0.34615422  0.34131399     0.13200
H332        H  0.46910078  0.34956933  0.28246021     0.13200
H333        H  0.49627787  0.33446502  0.32085250     0.13200
H334        H  0.41917435  0.33371156  0.38031620     0.13200
C335        C  0.41724065  0.34523650  0.16095344    -0.12900
C336        C  0.42789608  0.34769510  0.18916276     0.09200
C337        C  0.45292379  0.33779875  0.19587917    -0.12900
C338        C  0.46843865  0.32705435  0.17432885    -0.12900
C339        C  0.46004732  0.32746167  0.14570925     0.09200
C340        C  0.43336047  0.33526091  0.13925385    -0.12900
H341        H  0.39802638  0.35302940  0.15555511     0.13200
H342        H  0.46128750  0.33957886  0.21765416     0.13200
H343        H  0.48864638  0.32068366  0.17974050     0.13200
H344        H  0.42658180  0.33576836  0.11731001     0.13200
C345        C  0.33116474  0.42565320  0.31918575    -0.12900
C346        C  0.36628476  0.43637256  0.31342650     0.09200
C347        C  0.39106491  0.46166455  0.33103537    -0.12900
C348        C  0.38096272  0.47650625  0.35358330    -0.12900
C349        C  0.34597162  0.46716463  0.35835556     0.09200
C350        C  0.32109502  0.44104411  0.34141295    -0.12900
H351        H  0.31152559  0.40603781  0.30603192     0.13200
H352        H  0.41826980  0.46997918  0.32738899     0.13200
H353        H  0.40189893  0.00001829  0.36822090     0.13200
H354        H  0.29399148  0.43350382  0.34470607     0.13200
C355        C  0.38706534  0.47819931  0.14921376    -0.12900
C356        C  0.35276627  0.47062494  0.14432388     0.09200
C357        C  0.32647393  0.44571247  0.16130234    -0.12900
C358        C  0.33449425  0.42937883  0.18313930    -0.12900
C359        C  0.36897949  0.43789858  0.18853653     0.09200
C360        C  0.39509811  0.46241850  0.17122372    -0.12900
H361        H  0.40778505  0.49651625  0.13596898     0.13200
H362        H  0.29980712  0.43926074  0.15791271     0.13200
H363        H  0.31381070  0.41052086  0.19607336     0.13200
H364        H  0.42186770  0.46913760  0.17445379     0.13200
C365        C  0.42977894  0.09017160  0.33969099    -0.12900
C366        C  0.42059102  0.07808609  0.31164587     0.09200
C367        C  0.38745995  0.05154350  0.30624221    -0.12900
C368        C  0.36407575  0.03648096  0.32871272    -0.12900
C369        C  0.37407257  0.04640357  0.35710017     0.09200
C370        C  0.40673413  0.07425528  0.36235019    -0.12900
H371        H  0.45544409  0.11050299  0.34417347     0.13200
H372        H  0.38000811  0.04192472  0.28470029     0.13200
H373        H  0.33964905  0.51214351  0.32115272     0.13200
H374        H  0.41502045  0.08252055  0.38398902     0.13200
C375        C  0.41304604  0.07031992  0.13875041    -0.12900
C376        C  0.37887333  0.04606704  0.14499071     0.09200
C377        C  0.36702590  0.04110877  0.17343523    -0.12900
C378        C  0.38978533  0.05814968  0.19547015    -0.12900
C379        C  0.42433338  0.08080628  0.18919946     0.09200
C380        C  0.43572851  0.08758497  0.16081565    -0.12900
H381        H  0.42264746  0.07428048  0.11694443     0.13200
H382        H  0.34066358  0.02266063  0.17858389     0.13200
H383        H  0.38091012  0.05240478  0.21739055     0.13200
H384        H  0.46259135  0.10455988  0.15582787     0.13200
C385        C  0.08591791  0.17430586  0.31960813    -0.12900
C386        C  0.06266680  0.13967146  0.31361988     0.09200
C387        C  0.06215653  0.11361910  0.33074383    -0.12900
C388        C  0.08547634  0.12187383  0.35272128    -0.12900
C389        C  0.11040522  0.15616447  0.35731891     0.09200
C390        C  0.10981126  0.18250750  0.34130485    -0.12900
H391        H  0.08650526  0.19483867  0.30684404     0.13200
H392        H  0.04398453  0.08677615  0.32693150     0.13200
H393        H  0.08514334  0.10134023  0.36533143     0.13200
H394        H  0.12873555  0.20916129  0.34480093     0.13200
C395        C  0.10573492  0.14818908  0.19712330    -0.12900
C396        C  0.07320253  0.14450351  0.19060790     0.09200
C397        C  0.06602402  0.14896626  0.16257916    -0.12900
C398        C  0.09066521  0.15544426  0.14093121    -0.12900
C399        C  0.12302052  0.15809324  0.14713917     0.09200
C400        C  0.13076420  0.15572189  0.17563398    -0.12900
H401        H  0.11158617  0.14486991  0.21875370     0.13200
H402        H  0.04085740  0.14594377  0.15727848     0.13200
H403        H  0.08402533  0.15716055  0.11917586     0.13200
H404        H  0.15580083  0.15859829  0.18110805     0.13200
C405        C  0.15836293  0.22543829  0.05107900    -0.16000
C406        C  0.18314462  0.21724936  0.05843131    -0.31200
H407        H  0.13203431  0.21019493  0.05872245     0.13000
H408        H  0.20919283  0.23192078  0.04999808     0.13600
C409        C  0.04438660  0.31633158  0.05202844    -0.16000
C410        C  0.07737951  0.32240616  0.05445420    -0.31200
H411        H  0.03293418  0.31085035  0.03105207     0.13000
H412        H  0.08813235  0.32458342  0.07543945     0.13600
C413        C  0.29131504  0.46203774  0.05391319    -0.16000
C414        C  0.28772229  0.43012982  0.04858269    -0.31200
H415        H  0.27394533  0.47020074  0.04457748     0.13000
H416        H  0.30658290  0.42358466  0.05740957     0.13600
C417        C  0.16999659  0.21627889  0.44599264    -0.16000
C418        C  0.15873652  0.24022258  0.44583800    -0.31200
H419        H  0.18020268  0.21236544  0.46561233     0.13000
H420        H  0.14862572  0.24523117  0.42668322     0.13600
C421        C  0.05462086  0.31423815  0.45435042    -0.16000
C422        C  0.04195643  0.33659079  0.45164285    -0.31200
H423        H  0.04283361  0.28986841  0.44258115     0.13000
H424        H  0.05469060  0.36155862  0.46241836     0.13600
C425        C  0.27159388  0.46572012  0.44099480    -0.16000
C426        C  0.26639057  0.43524765  0.45152748    -0.31200
H427        H  0.25274344  0.47486104  0.44536960     0.13000
H428        H  0.28665557  0.42766427  0.44899626     0.13600
C429        C  0.03371477  0.23193707  0.94196791    -0.16000
C430        C  0.06413093  0.23722514  0.95268412    -0.31200
H431        H  0.02418920  0.25045640  0.94654641     0.13000
H432        H  0.07189074  0.21709206  0.94981916     0.13600
C433        C  0.18787928  0.44719814  0.95462970    -0.16000
C434        C  0.16564622  0.45996008  0.95200796    -0.31200
H435        H  0.21165070  0.45809447  0.94204182     0.13000
H436        H  0.14122184  0.44809407  0.96364310     0.13600
C437        C  0.28482350  0.31777775  0.55973960    -0.16000
C438        C  0.27662282  0.34202300  0.55083687    -0.31200
H439        H  0.26958687  0.29102625  0.55305916     0.13000
H440        H  0.29244325  0.36893112  0.55682482     0.13600
C441        C  0.28641720  0.33234371  0.94790339    -0.16000
C442        C  0.26222257  0.34334943  0.94784450    -0.31200
H443        H  0.29037412  0.32202425  0.96745401     0.13000
H444        H  0.25694306  0.35311705  0.92862455     0.13600
C445        C  0.18086562  0.42270583  0.55264060    -0.16000
C446        C  0.18388761  0.45462837  0.55027395    -0.31200
H447        H  0.18029419  0.41235437  0.57354245     0.13000
H448        H  0.18777784  0.46590236  0.52928256     0.13600
C449        C  0.03884473  0.21104869  0.55141040    -0.16000
C450        C  0.06938536  0.21246840  0.54409086    -0.31200
H451        H  0.03175446  0.23006589  0.54382584     0.13000
H452        H  0.07480025  0.19225792  0.55175283     0.13600
C453        C  0.40691185  0.33564007  0.81351702    -0.12900
C454        C  0.43221691  0.36997839  0.80956173     0.09200
C455        C  0.43384682  0.39555833  0.82900999    -0.12900
C456        C  0.41032825  0.38718431  0.85168612    -0.12900
C457        C  0.38397234  0.35325326  0.85492340     0.09200
C458        C  0.38276680  0.32736046  0.83597868    -0.12900
H459        H  0.40537087  0.31543293  0.79890966     0.13200
H460        H  0.45362390  0.42206435  0.82686621     0.13200
H461        H  0.41221875  0.40740505  0.86643900     0.13200
H462        H  0.36267099  0.30101182  0.83815379     0.13200
C463        C  0.11583005  0.43274143  0.84307649    -0.12900
C464        C  0.11438354  0.45882115  0.86022538     0.09200
C465        C  0.08872529  0.46859558  0.85576067    -0.12900
C466        C  0.06664111  0.45468452  0.83292985    -0.12900
C467        C  0.06926293  0.43011151  0.81460131     0.09200
C468        C  0.09318377  0.41827843  0.82035212    -0.12900
H469        H  0.13552366  0.42491320  0.84641164     0.13200
H470        H  0.08704826  0.48837014  0.86906957     0.13200
H471        H  0.04784281  0.46363694  0.82928990     0.13200
H472        H  0.09537181  0.39912931  0.80659238     0.13200
C473        C  0.11302203  0.44997911  0.69461356    -0.12900
C474        C  0.07871053  0.42673850  0.68860477     0.09200
C475        C  0.06909542  0.41682509  0.66023248    -0.12900
C476        C  0.09321260  0.43138027  0.63797484    -0.12900
C477        C  0.12728098  0.45596171  0.64385178     0.09200
C478        C  0.13724632  0.46408647  0.67243915    -0.12900
H479        H  0.12080771  0.45794359  0.71640389     0.13200
H480        H  0.04257045  0.39914037  0.65525194     0.13200
H481        H  0.08487259  0.42479823  0.61614617     0.13200
H482        H  0.16346248  0.48261204  0.67750999     0.13200
C483        C  0.41810177  0.33461906  0.67894752    -0.12900
C484        C  0.44126342  0.36945583  0.68413049     0.09200
C485        C  0.44122853  0.39484933  0.66645085    -0.12900
C486        C  0.41744755  0.38567686  0.64468531    -0.12900
C487        C  0.39293261  0.35108288  0.64068533     0.09200
C488        C  0.39396710  0.32549840  0.65737950    -0.12900
H489        H  0.41776370  0.31461746  0.69225361     0.13200
H490        H  0.45925868  0.42185380  0.66971725     0.13200
H491        H  0.41725453  0.40566132  0.63166431     0.13200
H492        H  0.37516884  0.29868233  0.65448889     0.13200
C493        C  0.07966220  0.17624897  0.81989298    -0.12900
C494        C  0.07149639  0.14138373  0.81592583     0.09200
C495        C  0.04783748  0.11679423  0.83472285    -0.12900
C496        C  0.03124399  0.12645837  0.85608394    -0.12900
C497        C  0.03744665  0.16082871  0.85880400     0.09200
C498        C  0.06260485  0.18590002  0.84118103    -0.12900
H499        H  0.09791172  0.19567928  0.80574061     0.13200
H500        H  0.04157080  0.08982474  0.83250330     0.13200
H501        H  0.01257230  0.10685504  0.86989303     0.13200
H502        H  0.06794388  0.21262456  0.84312133     0.13200
C503        C  0.14949736  0.03756786  0.80259827    -0.12900
C504        C  0.14466675  0.06663672  0.80835880     0.09200
C505        C  0.14991287  0.08067642  0.83607351    -0.12900
C506        C  0.15775724  0.06463983  0.85812885    -0.12900
C507        C  0.16125827  0.03461517  0.85279471     0.09200
C508        C  0.15863600  0.02227209  0.82445128    -0.12900
H509        H  0.14583331  0.02650814  0.78126967     0.13200
H510        H  0.14620577  0.10306076  0.84093915     0.13200
H511        H  0.15961277  0.07489036  0.87962092     0.13200
H512        H  0.16231142  0.99993865  0.81938987     0.13200
C513        C  0.17562122  0.07617773  0.68056582    -0.12900
C514        C  0.14055774  0.06633926  0.68554224     0.09200
C515        C  0.11582644  0.04013134  0.66846921    -0.12900
C516        C  0.12577358  0.02338958  0.64743128    -0.12900
C517        C  0.16060627  0.03187989  0.64341329     0.09200
C518        C  0.18557335  0.05895470  0.65967962    -0.12900
H519        H  0.19517320  0.09628463  0.69343928     0.13200
H520        H  0.08863052  0.03229579  0.67155016     0.13200
H521        H  0.10615483  0.00315718  0.63468533     0.13200
H522        H  0.21262200  0.06603853  0.65677143     0.13200
C523        C  0.04246679  0.15170116  0.69617903    -0.12900
C524        C  0.06984616  0.14411082  0.69074643     0.09200
C525        C  0.08256807  0.14616883  0.66271148    -0.12900
C526        C  0.06689547  0.15377438  0.64019232    -0.12900
C527        C  0.03846249  0.15994478  0.64534033     0.09200
C528        C  0.02743565  0.16030363  0.67378013    -0.12900
H529        H  0.03231896  0.15034438  0.71766575     0.13200
H530        H  0.10353830  0.14016181  0.65806227     0.13200
H531        H  0.07592086  0.15318374  0.61858257     0.13200
H532        H  0.50323353  0.16306204  0.68110428     0.13200
C533        C  0.41948416  0.06893981  0.84059095    -0.12900
C534        C  0.42861978  0.07783774  0.81196324     0.09200
C535        C  0.45338539  0.11152975  0.80545651    -0.12900
C536        C  0.46910852  0.13594720  0.82726614    -0.12900
C537        C  0.46104836  0.12687571  0.85606958     0.09200
C538        C  0.43560108  0.09323571  0.86248202    -0.12900
H539        H  0.40072479  0.04288017  0.84601672     0.13200
H540        H  0.46091075  0.11877968  0.78349635     0.13200
H541        H  0.98802967  0.16264122  0.82080642     0.13200
H542        H  0.42896661  0.08546260  0.88444265     0.13200
C543        C  0.36054296  0.44811386  0.84168004    -0.12900
C544        C  0.35530689  0.43697907  0.81315461     0.09200
C545        C  0.34192351  0.40181643  0.80635509    -0.12900
C546        C  0.33477277  0.37798029  0.82793763    -0.12900
C547        C  0.34135461  0.38919944  0.85646910     0.09200
C548        C  0.35338377  0.42427643  0.86330022    -0.12900
H549        H  0.37151816  0.47534642  0.84706405     0.13200
H550        H  0.33833712  0.39305136  0.78431399     0.13200
H551        H  0.32537233  0.35096515  0.82235048     0.13200
H552        H  0.35881348  0.43334792  0.88518171     0.13200
C553        C  0.43468931  0.11625383  0.65784968    -0.12900
C554        C  0.46144120  0.11511185  0.64154649     0.09200
C555        C  0.47145339  0.08973988  0.64687769    -0.12900
C556        C  0.45679840  0.06748872  0.66960826    -0.12900
C557        C  0.43117507  0.06958024  0.68688171     0.09200
C558        C  0.41949752  0.09347293  0.68037279    -0.12900
H559        H  0.42660593  0.13564618  0.65386022     0.13200
H560        H  0.49171868  0.08821843  0.63419069     0.13200
H561        H  0.46572786  0.04878562  0.67379851     0.13200
H562        H  0.39951414  0.09529069  0.69323438     0.13200
C563        C  0.35656137  0.43871148  0.66342626    -0.12900
C564        C  0.35908855  0.43022516  0.69155236     0.09200
C565        C  0.35301568  0.39669152  0.69769173    -0.12900
C566        C  0.34531465  0.37208980  0.67575878    -0.12900
C567        C  0.34485584  0.38109451  0.64726542     0.09200
C568        C  0.34965102  0.41436030  0.64139388    -0.12900
H569        H  0.36150982  0.46464054  0.65837264     0.13200
H570        H  0.35480869  0.38977185  0.71935274     0.13200
H571        H  0.34107084  0.34641125  0.68085828     0.13200
H572        H  0.34950413  0.42191540  0.61962631     0.13200
C573        C  0.44421080  0.18584881  0.54921458    -0.16000
C574        C  0.46018627  0.16613084  0.55002169    -0.31200
H575        H  0.45315625  0.20855996  0.56305794     0.13000
H576        H  0.45074285  0.14286136  0.53684857     0.13600
C577        C  0.31828194  0.07594880  0.44797835    -0.16000
C578        C  0.31521973  0.04392576  0.45021725    -0.31200
H579        H  0.31876012  0.08625746  0.42707788     0.13000
H580        H  0.31132325  0.03246990  0.47113009     0.13600
C581        C  0.22963484  0.03252058  0.55765851    -0.16000
C582        C  0.23351867  0.06276505  0.54761379    -0.31200
H583        H  0.24891287  0.02414408  0.55253256     0.13000
H584        H  0.21290598  0.06972412  0.55100203     0.13600
C585        C  0.46182756  0.28668817  0.44858129    -0.16000
C586        C  0.43128032  0.28565236  0.45540811    -0.31200
H587        H  0.46888805  0.26799494  0.45694101     0.13000
H588        H  0.42599318  0.30552611  0.44678373     0.13600
C589        C  0.21559015  0.18289681  0.44014847    -0.16000
C590        C  0.22423854  0.15851365  0.44801705    -0.31200
H591        H  0.23009176  0.20912591  0.44829152     0.13000
H592        H  0.20914173  0.13196360  0.44078302     0.13600
C593        C  0.34361495  0.26226070  0.55408760    -0.16000
C594        C  0.33119360  0.28535117  0.55393249    -0.31200
H595        H  0.35580855  0.25926783  0.57285333     0.13000
H596        H  0.31889751  0.28722252  0.53475511     0.13600
C597        C  0.21351472  0.03901857  0.94694721    -0.16000
C598        C  0.21478138  0.06981179  0.95314669    -0.31200
H599        H  0.23175372  0.03187855  0.95608026     0.13000
H600        H  0.19534812  0.07532903  0.94401710     0.13600
C601        C  0.21614997  0.17134662  0.05218327    -0.16000
C602        C  0.24001805  0.16005226  0.05241096    -0.31200
H603        H  0.21230468  0.18159401  0.03254665     0.13000
H604        H  0.24499049  0.15022834  0.07176117     0.13600
C605        C  0.42324019  0.17838118  0.94619516    -0.16000
C606        C  0.45634269  0.18470365  0.94838898    -0.31200
H607        H  0.41211159  0.17566503  0.92530875     0.13000
H608        H  0.46818817  0.19085694  0.96921676     0.13600
C609        C  0.32854742  0.03798404  0.05074041    -0.16000
C610        C  0.31427971  0.05926632  0.05316928    -0.31200
H611        H  0.34445859  0.03927043  0.03222380     0.13000
H612        H  0.29764492  0.05685460  0.07148636     0.13600
C613        C  0.43836682  0.26521915  0.04532310    -0.16000
C614        C  0.46775460  0.26863230  0.05660506    -0.31200
H615        H  0.43162650  0.28607536  0.04825997     0.13000
H616        H  0.47616541  0.24915962  0.05253215     0.13600
C617        C  0.34397471  0.27695042  0.94774416    -0.16000
C618        C  0.32014889  0.28674579  0.94075862    -0.31200
H619        H  0.37055853  0.29185886  0.94063486     0.13000
H620        H  0.29393440  0.27233885  0.94891124     0.13600
O621        O  0.35527340  0.60650699  0.02186121    -0.80500
O622        O  0.35713310  0.73598517  0.96835158    -0.65200
O623        O  0.34417396  0.66513314  0.02006187    -1.11800
C624        C  0.24384850  0.59828365  0.96639411     1.06400
O625        O  0.30242531  0.72479853  0.97049972    -0.78400
O626        O  0.25985842  0.67460233  0.00535296    -0.66000
Ni627      Ni  0.38172245  0.65610889  0.02892821     1.34900
C628        C  0.25933901  0.65695395  0.02649559     0.85100
O629        O  0.39005515  0.73521876  0.01535787    -0.78900
O630        O  0.41091708  0.70431685  0.03805385    -0.89200
C631        C  0.33355041  0.74392304  0.96306141     0.84700
O632        O  0.40316985  0.66259383  0.99195923    -0.67400
O633        O  0.24466918  0.62722587  0.96201704    -0.86700
C634        C  0.40211603  0.67892955  0.97033860     0.85500
C635        C  0.41153761  0.73287170  0.03182641     1.07100
H636        H  0.32078650  0.66055900  0.95681339     0.38900
O637        O  0.31317926  0.66598234  0.97489908    -1.09300
O638        O  0.27469459  0.63836914  0.02645830    -0.66000
Ni639      Ni  0.30537135  0.62985492  0.00073608     1.26300
O640        O  0.38273247  0.69316924  0.96892621    -0.66200
O641        O  0.26683958  0.59503105  0.98015196    -0.78500
C642        C  0.32453362  0.58734511  0.03084520     0.84900
O643        O  0.30078918  0.59548594  0.02696555    -0.65700
Ni644      Ni  0.27562996  0.67537960  0.96717997     1.27400
Ni645      Ni  0.35190500  0.70110429  0.99442706     1.26100
H646        H  0.33637174  0.67063776  0.03800848     0.39500
O647        O  0.27625133  0.69874980  0.46984065    -0.80500
O648        O  0.40241294  0.69587151  0.52829902    -0.65200
O649        O  0.33401489  0.68634173  0.47476331    -1.11800
C650        C  0.26322747  0.58696865  0.53016361     1.06400
O651        O  0.38907825  0.64098549  0.52225519    -0.78400
O652        O  0.33385901  0.59429853  0.49170371    -0.66000
Ni653      Ni  0.32580163  0.72478927  0.46740453     1.34900
C654        C  0.31892734  0.59639533  0.46957765     0.85100
O655        O  0.40518493  0.73150451  0.48133230    -0.78900
O656        O  0.37424616  0.75506491  0.46311919    -0.89200
C657        C  0.40769502  0.67048404  0.53357999     0.84700
O658        O  0.32592266  0.73985521  0.50578756    -0.67400
O659        O  0.29118131  0.58681906  0.53704205    -0.86700
C660        C  0.34300923  0.73968056  0.52708405     0.85500
C661        C  0.40279345  0.75519461  0.46777743     1.07100
H662        H  0.32664378  0.66161463  0.53753445     0.38900
O663        O  0.33245204  0.65384364  0.51970679    -1.09300
O664        O  0.30558915  0.61655733  0.46776614    -0.66000
Ni665      Ni  0.29763624  0.64741971  0.49336136     1.26300
O666        O  0.36100676  0.72369443  0.52703356    -0.66200
O667        O  0.26210190  0.60902406  0.51348878    -0.78500
C668        C  0.25691683  0.66794941  0.46162383     0.84900
O669        O  0.26406706  0.64371902  0.46660288    -0.65700
Ni670      Ni  0.33967530  0.61519701  0.52878791     1.27400
Ni671      Ni  0.36920512  0.69279988  0.50119964     1.26100
H672        H  0.33968366  0.67898532  0.45667042     0.39500
O673        O  0.38763463  0.54082336  0.72044755    -0.74000
O674        O  0.34751777  0.97185970  0.77973318    -0.74000
O675        O  0.38496602  0.54342336  0.77847194    -0.74100
O676        O  0.35002510  0.96966947  0.72160445    -0.74100
O677        O  0.39799272  0.96420844  0.72438694    -0.74100
O678        O  0.43510302  0.54176830  0.77874860    -0.74100
O679        O  0.39684978  0.96866254  0.78158344    -0.74000
O680        O  0.43611461  0.53607699  0.72117010    -0.74100
Ni681      Ni  0.36671928  0.50739036  0.74999331     1.25400
Ni682      Ni  0.41965291  0.50421196  0.75169363     1.25400
C683        C  0.41791390  0.54873875  0.71059245     0.88200
C684        C  0.36597104  0.95945116  0.79020895     0.88100
C685        C  0.41550318  0.55442346  0.78786614     0.88100
C686        C  0.36839051  0.95504255  0.71366633     0.88300
O687        O  0.09729082  0.56263520  0.71874795    -0.74000
O688        O  0.06557547  0.59722700  0.78161362    -0.74000
O689        O  0.06280302  0.60008227  0.72419004    -0.74100
O690        O  0.10034785  0.56029041  0.77612316    -0.74100
O691        O  0.14892324  0.61014683  0.77795924    -0.74100
O692        O  0.11369066  0.64737859  0.72171471    -0.74100
O693        O  0.11383670  0.64732121  0.77997337    -0.74000
O694        O  0.14842166  0.60967502  0.71981057    -0.74100
Ni695      Ni  0.07976806  0.57837044  0.75015676     1.25400
Ni696      Ni  0.13306447  0.63044256  0.74983738     1.25400
C697        C  0.12803677  0.58006158  0.70903116     0.88200
C698        C  0.08421376  0.62783952  0.79118920     0.88100
C699        C  0.08235653  0.62992147  0.71386461     0.88100
C700        C  0.13042585  0.57907589  0.78619753     0.88300
O701        O  0.03819592  0.93610066  0.77963146    -0.74000
O702        O  0.47559584  0.90703693  0.71736678    -0.74000
O703        O  0.47043490  0.90853810  0.77521380    -0.74100
O704        O  0.04491673  0.93578437  0.72229140    -0.74100
O705        O  0.04153321  0.88329242  0.72240292    -0.74100
O706        O  0.46865217  0.85690429  0.77737122    -0.74100
O707        O  0.47238353  0.85476798  0.71925473    -0.74000
O708        O  0.03693607  0.88459321  0.78065610    -0.74100
Ni709      Ni  0.00728614  0.92293516  0.74891598     1.25400
Ni710      Ni  0.00437073  0.86708476  0.75004910     1.25400
C711        C  0.04735454  0.91533845  0.79066735     0.88200
C712        C  0.46375254  0.87596474  0.70802343     0.88100
C713        C  0.45808684  0.87844805  0.78602612     0.88100
C714        C  0.05516795  0.91423143  0.71319942     0.88300
C715        C  0.48416364  0.67552595  0.57663336     0.02700
C716        C  0.01687504  0.68748146  0.57619067     0.02700
C717        C  0.03407546  0.68643183  0.60099782    -0.17900
C718        C  0.01717923  0.66268957  0.62273785     0.02700
C719        C  0.48326656  0.64673700  0.62124958     0.02700
C720        C  0.46617691  0.65189622  0.59851089    -0.17900
H721        H  0.43857786  0.63575261  0.59722418     0.04700
H722        H  0.06126042  0.70411283  0.60327182     0.04700
C723        C  0.19816124  0.51155044  0.57545708     0.02700
C724        C  0.18461171  0.97515339  0.57791743     0.02700
C725        C  0.16209350  0.95752064  0.60072577    -0.17900
C726        C  0.15530549  0.97531025  0.62328449     0.02700
C727        C  0.16764544  0.51204101  0.61980577     0.02700
C728        C  0.19110767  0.52952835  0.59779158    -0.17900
H729        H  0.20407896  0.55750674  0.59818121     0.04700
H730        H  0.14880184  0.92958486  0.60068415     0.04700
C731        C  0.30783896  0.83356950  0.92231062     0.02700
C732        C  0.32620061  0.81402670  0.92024833     0.02700
C733        C  0.35028630  0.82028243  0.89772022    -0.17900
C734        C  0.35637568  0.84525598  0.87722331     0.02700
C735        C  0.33675072  0.86330451  0.87859823     0.02700
C736        C  0.31385992  0.85819814  0.90136633    -0.17900
H737        H  0.30097882  0.87405316  0.90237700     0.04700
H738        H  0.36427611  0.80543085  0.89581027     0.04700
C739        C  0.31137393  0.82268753  0.57970591     0.02700
C740        C  0.33246149  0.80598195  0.57802994     0.02700
C741        C  0.35774004  0.81418452  0.59887347    -0.17900
C742        C  0.36182115  0.83756278  0.62128606     0.02700
C743        C  0.33982217  0.85314546  0.62364467     0.02700
C744        C  0.31504956  0.84552034  0.60267008    -0.17900
H745        H  0.29777636  0.85687692  0.60472865     0.04700
H746        H  0.37574825  0.80374473  0.59722423     0.04700
C747        C  0.16963002  0.98079682  0.92621076     0.02700
C748        C  0.18911085  0.51589642  0.92397991     0.02700
C749        C  0.18726192  0.53234472  0.89903636    -0.17900
C750        C  0.16355001  0.51443170  0.87757750     0.02700
C751        C  0.14406852  0.97902748  0.88012764     0.02700
C752        C  0.14718328  0.96239194  0.90411750    -0.17900
H753        H  0.13067743  0.93484797  0.90622868     0.04700
H754        H  0.20423214  0.55968526  0.89641820     0.04700
C755        C  0.47745195  0.68444212  0.92243221     0.02700
C756        C  0.01441108  0.70297747  0.92056971     0.02700
C757        C  0.03290913  0.69578465  0.89876157    -0.17900
C758        C  0.01616084  0.67066390  0.87766559     0.02700
C759        C  0.47887082  0.65464194  0.87773463     0.02700
C760        C  0.46053643  0.66102887  0.89999604    -0.17900
H761        H  0.43267913  0.64684793  0.90003141     0.04700
H762        H  0.06083026  0.70964429  0.89831093     0.04700
O763        O  0.10728800  0.85514954  0.47806730    -0.80500
O764        O  0.23656224  0.85492273  0.52917323    -0.65200
O765        O  0.16504705  0.84282227  0.47882788    -1.11800
C766        C  0.09876449  0.74217515  0.53306622     1.06400
O767        O  0.22496104  0.80008077  0.52619943    -0.78400
O768        O  0.17347076  0.75760267  0.49261183    -0.66000
Ni769      Ni  0.15681493  0.88095190  0.47007074     1.34900
C770        C  0.15591601  0.75780381  0.47168757     0.85100
O771        O  0.23541268  0.88815578  0.48249275    -0.78900
O772        O  0.20507660  0.90965871  0.45991003    -0.89200
C773        C  0.24412708  0.83099512  0.53420472     0.84700
O774        O  0.16450663  0.90285247  0.50698394    -0.67400
O775        O  0.12770005  0.74291301  0.53710577    -0.86700
C776        C  0.18057946  0.90116289  0.52854095     0.85500
C777        C  0.23347306  0.90983179  0.46594715     1.07100
H778        H  0.16169213  0.81913021  0.54188849     0.38900
O779        O  0.16655551  0.81143004  0.52360672    -1.09300
O780        O  0.13757427  0.77341497  0.47222907    -0.66000
Ni781      Ni  0.12994292  0.80404783  0.49863590     1.26300
O782        O  0.19421319  0.88117978  0.52966340    -0.66200
O783        O  0.09544706  0.76528807  0.51945757    -0.78500
C784        C  0.08700283  0.82408671  0.47026122     0.84900
O785        O  0.09489301  0.80001837  0.47355104    -0.65700
Ni786      Ni  0.17571080  0.77355545  0.53083222     1.27400
Ni787      Ni  0.20140791  0.85013604  0.50373642     1.26100
H788        H  0.17003527  0.83483927  0.46078201     0.39500
O789        O  0.19590210  0.77294448  0.02523971    -0.80500
O790        O  0.20192030  0.90526453  0.97444925    -0.65200
O791        O  0.18693877  0.83254181  0.02480017    -1.11800
C792        C  0.08912426  0.76817800  0.96647735     1.06400
O793        O  0.14730958  0.89464947  0.97742073    -0.78400
O794        O  0.09854941  0.83891225  0.00691278    -0.66000
Ni795      Ni  0.22343650  0.82153796  0.03230103     1.34900
C796        C  0.09909121  0.82247521  0.02866351     0.85100
O797        O  0.23491966  0.90303479  0.02132490    -0.78900
O798        O  0.25451054  0.86899972  0.04041621    -0.89200
C799        C  0.17858554  0.91371968  0.96959275     0.84700
O800        O  0.24152806  0.82512055  0.99469291    -0.67400
O801        O  0.09032117  0.79703969  0.96036350    -0.86700
C802        C  0.24165055  0.84265848  0.97366170     0.85500
C803        C  0.25660791  0.89852370  0.03602216     1.07100
H804        H  0.16512417  0.83004258  0.96174092     0.38900
O805        O  0.15708679  0.83538793  0.97961027    -1.09300
O806        O  0.11755757  0.80719327  0.03015441    -0.66000
Ni807      Ni  0.14807749  0.79853951  0.00471698     1.26300
O808        O  0.22612194  0.86102151  0.97387817    -0.66200
O809        O  0.10999216  0.76533729  0.98327906    -0.78500
C810        C  0.16546554  0.75446472  0.03443461     0.84900
O811        O  0.14190874  0.76283217  0.03031560    -0.65700
Ni812      Ni  0.12022243  0.84515046  0.97005541     1.27400
Ni813      Ni  0.19598874  0.86965990  0.99987556     1.26100
H814        H  0.17931973  0.83765021  0.04299903     0.39500
O815        O  0.46469693  0.62232466  0.22139990    -0.74000
O816        O  0.03024076  0.65150760  0.27934147    -0.74000
O817        O  0.03312460  0.65287109  0.22136304    -0.74100
O818        O  0.46154837  0.61906662  0.27953861    -0.74100
O819        O  0.45815933  0.56664969  0.27537906    -0.74100
O820        O  0.03152404  0.60114496  0.22157620    -0.74100
O821        O  0.02573859  0.59858828  0.27899946    -0.74000
O822        O  0.46458410  0.57125264  0.21806468    -0.74100
Ni823      Ni  0.49789568  0.63772126  0.25120669     1.25400
Ni824      Ni  0.49586426  0.58216112  0.24859820     1.25400
C825        C  0.45427412  0.59243620  0.20979455     0.88200
C826        C  0.03832001  0.62930414  0.28928720     0.88100
C827        C  0.04429216  0.63197369  0.21230028     0.88100
C828        C  0.44819927  0.58738892  0.28688879     0.88300
O829        O  0.41053161  0.93974585  0.28141678    -0.74000
O830        O  0.43933042  0.89719303  0.22159768    -0.74000
O831        O  0.41000513  0.93952701  0.22336053    -0.74100
O832        O  0.44040227  0.89766958  0.27887801    -0.74100
O833        O  0.38808189  0.85214632  0.28030868    -0.74100
O834        O  0.35781348  0.89394873  0.22366382    -0.74100
O835        O  0.38714530  0.85136264  0.22215323    -0.74000
O836        O  0.35822149  0.89431291  0.28152240    -0.74100
Ni837      Ni  0.42684529  0.92020642  0.25130568     1.25400
Ni838      Ni  0.37093471  0.87128276  0.25194740     1.25400
C839        C  0.37964030  0.92393429  0.29145400     0.88200
C840        C  0.41798541  0.86724785  0.21221529     0.88100
C841        C  0.37926051  0.92354048  0.21388309     0.88100
C842        C  0.41936368  0.86811319  0.28871810     0.88300
C843        C  0.31844655  0.52299713  0.42211063     0.02700
C844        C  0.30224637  0.98763059  0.42380432     0.02700
C845        C  0.31182279  0.97083900  0.40197550    -0.17900
C846        C  0.33672657  0.98944768  0.38112840     0.02700
C847        C  0.35058559  0.52326754  0.37840829     0.02700
C848        C  0.34255353  0.54086201  0.40029795    -0.17900
H849        H  0.35560817  0.56880666  0.40039535     0.04700
H850        H  0.29939395  0.94290475  0.40076520     0.04700
O851        O  0.10737448  0.96284915  0.27937137    -0.74000
O852        O  0.14222086  0.52596731  0.21760431    -0.74000
O853        O  0.14484740  0.53115267  0.27552088    -0.74100
O854        O  0.10695650  0.95819017  0.22118016    -0.74100
O855        O  0.05773778  0.96156148  0.22174483    -0.74100
O856        O  0.09682921  0.53686179  0.27523875    -0.74100
O857        O  0.09270116  0.52886002  0.21803981    -0.74000
O858        O  0.05898313  0.96778323  0.27981688    -0.74100
Ni859      Ni  0.12707755  0.99497311  0.24887763     1.25400
Ni860      Ni  0.07457218  0.99904674  0.24878403     1.25400
C861        C  0.07769496  0.95560586  0.29023982     0.88200
C862        C  0.12255315  0.53712791  0.20730620     0.88100
C863        C  0.12728276  0.54624807  0.28421536     0.88100
C864        C  0.07669780  0.94860890  0.21159459     0.88300
C865        C  0.33637084  0.52099017  0.07270389     0.02700
C866        C  0.31374995  0.98236838  0.07748134     0.02700
C867        C  0.31965245  0.96722403  0.10168503    -0.17900
C868        C  0.34182988  0.98725264  0.12339042     0.02700
C869        C  0.36283380  0.52509588  0.11879190     0.02700
C870        C  0.35886063  0.54055862  0.09441635    -0.17900
H871        H  0.37334068  0.56836744  0.09239849     0.04700
H872        H  0.30715793  0.93944816  0.10378808     0.04700
C873        C  0.18975033  0.67794132  0.41724771     0.02700
C874        C  0.16827595  0.69420292  0.41942534     0.02700
C875        C  0.14351277  0.68693030  0.39834186    -0.17900
C876        C  0.14006366  0.66462985  0.37537384     0.02700
C877        C  0.16233085  0.64949724  0.37256416     0.02700
C878        C  0.18686872  0.65644782  0.39353068    -0.17900
H879        H  0.20428982  0.64531073  0.39100893     0.04700
H880        H  0.12518243  0.69694745  0.40029392     0.04700
C881        C  0.19261165  0.66676658  0.07682371     0.02700
C882        C  0.17583645  0.68777944  0.07894180     0.02700
C883        C  0.15371264  0.68418675  0.10235232    -0.17900
C884        C  0.14618578  0.65901495  0.12290603     0.02700
C885        C  0.16147845  0.63689273  0.11987471     0.02700
C886        C  0.18454891  0.64114475  0.09731983    -0.17900
H887        H  0.19478838  0.62297335  0.09527687     0.04700
H888        H  0.14255915  0.70159854  0.10495498     0.04700
C889        C  0.48492184  0.80984689  0.42521494     0.02700
C890        C  0.02086132  0.83571042  0.42797835     0.02700
C891        C  0.03712615  0.85979600  0.40635995    -0.20700
C892        C  0.01929778  0.86064980  0.38233376     0.02700
C893        C  0.48407519  0.83468031  0.37898030     0.02700
C894        C  0.46758754  0.81050805  0.40043491    -0.17900
H895        H  0.44051939  0.79240432  0.39808643     0.04700
H896        H  0.06397278  0.87875342  0.40854724     0.04700
C897        C  0.02396386  0.81810183  0.07618403     0.02700
C898        C  0.48545350  0.79617469  0.07848653     0.02700
C899        C  0.46599820  0.80070747  0.10100866    -0.17900
C900        C  0.48167357  0.82466518  0.12302460     0.02700
C901        C  0.02051280  0.84752686  0.12046942     0.02700
C902        C  0.03995446  0.84235257  0.09838483    -0.17900
H903        H  0.06757976  0.85877990  0.09772025     0.04700
H904        H  0.43824948  0.78488802  0.10176962     0.04700
C905        C  0.06576189  0.88970782  0.34581617    -0.12900
C906        C  0.03745741  0.88828636  0.36147643     0.09200
C907        C  0.02450564  0.91118711  0.35529458    -0.12900
C908        C  0.03782476  0.93325978  0.33222597    -0.12900
C909        C  0.06489982  0.93338337  0.31541930     0.09200
C910        C  0.07948156  0.91220773  0.32295513    -0.12900
H911        H  0.07614446  0.87228790  0.35045789     0.13200
H912        H  0.50374129  0.90920507  0.36810127     0.13200
H913        H  0.02658793  0.94986784  0.32730261     0.13200
H914        H  0.10064614  0.91214325  0.31057709     0.13200
C915        C  0.03844069  0.92333554  0.16991977    -0.12900
C916        C  0.06387336  0.92352452  0.18758518     0.09200
C917        C  0.07763135  0.90078207  0.18121036    -0.12900
C918        C  0.06455230  0.87681030  0.15863351    -0.12900
C919        C  0.03798516  0.87569929  0.14185857     0.09200
C920        C  0.02618825  0.90019791  0.14698159    -0.12900
H921        H  0.02808425  0.94124940  0.17373644     0.13200
H922        H  0.09777162  0.90089470  0.19414226     0.13200
H923        H  0.07432212  0.85841868  0.15486199     0.13200
H924        H  0.50437569  0.89891597  0.13467106     0.13200
C925        C  0.14696920  0.60741835  0.29902844    -0.12900
C926        C  0.14168441  0.57423706  0.30551921     0.09200
C927        C  0.14722758  0.56710587  0.33328309    -0.12900
C928        C  0.15567128  0.59224858  0.35483503    -0.12900
C929        C  0.15924569  0.62505120  0.34878090     0.09200
C930        C  0.15656501  0.63293002  0.32036730    -0.12900
H931        H  0.14292718  0.61331616  0.27761364     0.13200
H932        H  0.14308426  0.54150684  0.33860105     0.13200
H933        H  0.15763237  0.58550097  0.37650631     0.13200
H934        H  0.16004096  0.65826928  0.31500167     0.13200
C935        C  0.16850998  0.58349605  0.17839043    -0.12900
C936        C  0.13374509  0.55968755  0.18259955     0.09200
C937        C  0.10889456  0.55878252  0.16386755    -0.12900
C938        C  0.11834610  0.58268209  0.14219627    -0.12900
C939        C  0.15264430  0.60814368  0.13936123     0.09200
C940        C  0.17793167  0.60775209  0.15682247    -0.12900
H941        H  0.18799539  0.58446940  0.19262326     0.13200
H942        H  0.08199671  0.54013078  0.16646802     0.13200
H943        H  0.09870874  0.58242966  0.12851598     0.13200
H944        H  0.20455188  0.62729668  0.15469626     0.13200
C945        C  0.41810846  0.84871157  0.33834648    -0.12900
C946        C  0.43170857  0.85307606  0.31051160     0.09200
C947        C  0.46001732  0.84707651  0.30455996    -0.12900
C948        C  0.47530519  0.83803963  0.32639919    -0.12900
C949        C  0.46352074  0.83646030  0.35478221     0.09200
C950        C  0.43401981  0.84068511  0.36035533    -0.12900
H951        H  0.39653027  0.85364943  0.34336556     0.13200
H952        H  0.47089550  0.85039612  0.28317183     0.13200
H953        H  0.49763020  0.83433532  0.32143262     0.13200
H954        H  0.42448950  0.83975687  0.38200802     0.13200
C955        C  0.41918393  0.84906979  0.16168185    -0.12900
C956        C  0.42958831  0.85084880  0.18992822     0.09200
C957        C  0.45347544  0.83939255  0.19651442    -0.12900
C958        C  0.46800955  0.82760823  0.17489180    -0.12900
C959        C  0.45994245  0.82855281  0.14624309     0.09200
C960        C  0.43438939  0.83806267  0.13988313    -0.12900
H961        H  0.40076557  0.85794889  0.15635735     0.13200
H962        H  0.46164462  0.84058638  0.21828224     0.13200
H963        H  0.48734312  0.81999011  0.18028667     0.13200
H964        H  0.42783447  0.83904382  0.11795608     0.13200
C965        C  0.33334730  0.92925758  0.32028451    -0.12900
C966        C  0.36854778  0.93984103  0.31497952     0.09200
C967        C  0.39302261  0.96539678  0.33262450    -0.12900
C968        C  0.38253189  0.98024534  0.35497428    -0.12900
C969        C  0.34741899  0.97054471  0.35964627     0.09200
C970        C  0.32288668  0.94456047  0.34236339    -0.12900
H971        H  0.31392030  0.90964867  0.30697542     0.13200
H972        H  0.42028083  0.97378684  0.32924739     0.13200
H973        H  0.40054028  0.49625534  0.36669970     0.13200
H974        H  0.29572220  0.93687769  0.34541062     0.13200
C975        C  0.38558554  0.97935933  0.15139810    -0.12900
C976        C  0.35087369  0.96989282  0.14625586     0.09200
C977        C  0.32522734  0.94430553  0.16318733    -0.12900
C978        C  0.33423411  0.92907140  0.18522173    -0.12900
C979        C  0.36906766  0.93935065  0.19081589     0.09200
C980        C  0.39458268  0.96463259  0.17360273    -0.12900
H981        H  0.40584246  0.99842034  0.13826996     0.13200
H982        H  0.29828475  0.93651327  0.15961716     0.13200
H983        H  0.31400873  0.90960388  0.19809479     0.13200
H984        H  0.42162139  0.97274261  0.17703570     0.13200
C985        C  0.43035388  0.58662761  0.33775487    -0.12900
C986        C  0.42177847  0.57451942  0.30963103     0.09200
C987        C  0.38886234  0.54775531  0.30390446    -0.12900
C988        C  0.36492802  0.53286060  0.32609761    -0.12900
C989        C  0.37414490  0.54315881  0.35458659     0.09200
C990        C  0.40679286  0.57087387  0.36014015    -0.12900
H991        H  0.45586620  0.60707780  0.34251852     0.13200
H992        H  0.38188411  0.53807784  0.28231355     0.13200
H993        H  0.33869686  0.01575806  0.32404519     0.13200
H994        H  0.41457514  0.57932835  0.38184581     0.13200
C995        C  0.42016764  0.56994790  0.13589579    -0.12900
C996        C  0.38534732  0.54730958  0.14169212     0.09200
C997        C  0.37264473  0.54387245  0.16984734    -0.12900
C998        C  0.39498707  0.56074074  0.19215544    -0.12900
C999        C  0.43007489  0.58160726  0.18645051     0.09200
C1000       C  0.44251038  0.58690560  0.15825844    -0.12900
H1001       H  0.43039498  0.57285016  0.11431084     0.13200
H1002       H  0.34576641  0.52677950  0.17463384     0.13200
H1003       H  0.38526876  0.55615241  0.21392887     0.13200
H1004       H  0.46975271  0.60258459  0.15373217     0.13200
C1005       C  0.08532787  0.67364260  0.31886103    -0.12900
C1006       C  0.06240964  0.63889578  0.31297362     0.09200
C1007       C  0.06313378  0.61299329  0.32953297    -0.12900
C1008       C  0.08725414  0.62157853  0.35091082    -0.12900
C1009       C  0.11165128  0.65608021  0.35548175     0.09200
C1010       C  0.10995604  0.68218405  0.33995261    -0.12900
H1011       H  0.08503689  0.69404964  0.30649548     0.13200
H1012       H  0.04529851  0.58603990  0.32575197     0.13200
H1013       H  0.08779266  0.60121072  0.36316909     0.13200
H1014       H  0.12847862  0.70898233  0.34344853     0.13200
C1015       C  0.10390169  0.64541412  0.19669001    -0.12900
C1016       C  0.07176787  0.64297937  0.19039692     0.09200
C1017       C  0.06503131  0.64825446  0.16243251    -0.12900
C1018       C  0.08956409  0.65427660  0.14069668    -0.12900
C1019       C  0.12148398  0.65569487  0.14666504     0.09200
C1020       C  0.12885916  0.65251766  0.17512829    -0.12900
H1021       H  0.10951318  0.64147339  0.21822728     0.13200
H1022       H  0.04021144  0.64617868  0.15720859     0.13200
H1023       H  0.08313196  0.65663933  0.11902349     0.13200
H1024       H  0.15357577  0.65455149  0.18056095     0.13200
C1025       C  0.15754012  0.72306506  0.05037954    -0.16000
C1026       C  0.18241513  0.71510067  0.05801382    -0.31200
H1027       H  0.13115294  0.70760980  0.05780939     0.13000
H1028       H  0.20856094  0.73000870  0.04986009     0.13600
C1029       C  0.04513200  0.81672767  0.05125989    -0.16000
C1030       C  0.07751895  0.82120075  0.05377608    -0.31200
H1031       H  0.03386423  0.81213716  0.03023746     0.13000
H1032       H  0.08794008  0.82249004  0.07476902     0.13600
C1033       C  0.28903714  0.95936511  0.05546314    -0.16000
C1034       C  0.28601507  0.92771686  0.04991334    -0.31200
H1035       H  0.27152805  0.96718645  0.04589953     0.13000
H1036       H  0.30492828  0.92126580  0.05873121     0.13600
C1037       C  0.16950493  0.71609775  0.44479836    -0.16000
C1038       C  0.15646934  0.73870334  0.44543432    -0.31200
H1039       H  0.18078621  0.71284121  0.46405835     0.13000
H1040       H  0.14544781  0.74323139  0.42661084     0.13600
C1041       C  0.05395279  0.81532922  0.45615532    -0.16000
C1042       C  0.04246992  0.83850768  0.45266017    -0.31200
H1043       H  0.04121372  0.79056451  0.44504991     0.13000
H1044       H  0.05634613  0.86386626  0.46262974     0.13600
C1045       C  0.27207166  0.96631401  0.44280387    -0.16000
C1046       C  0.26605081  0.93496056  0.45195265    -0.31200
H1047       H  0.25369354  0.97581448  0.44808602     0.13000
H1048       H  0.28588839  0.92690130  0.44867488     0.13600
C1049       C  0.03414146  0.73194944  0.94092222    -0.16000
C1050       C  0.06390778  0.73615681  0.95206200    -0.31200
H1051       H  0.02530057  0.75106135  0.94520105     0.13000
H1052       H  0.07100856  0.71553412  0.94935804     0.13600
C1053       C  0.18830418  0.94566843  0.95336503    -0.16000
C1054       C  0.16786537  0.96072047  0.95168496    -0.31200
H1055       H  0.21119849  0.95473944  0.93974791     0.13000
H1056       H  0.14441594  0.95107230  0.96462038     0.13600
C1057       C  0.28362289  0.81494323  0.55888660    -0.16000
C1058       C  0.27574871  0.83942624  0.55000966    -0.31200
H1059       H  0.26841518  0.78833169  0.55183332     0.13000
H1060       H  0.29156543  0.86619142  0.55639579     0.13600
C1061       C  0.28443464  0.83019462  0.94719991    -0.16000
C1062       C  0.26108844  0.84229681  0.94764529    -0.31200
H1063       H  0.28765331  0.81880293  0.96642880     0.13000
H1064       H  0.25634777  0.85321150  0.92887489     0.13600
C1065       C  0.18313386  0.92277436  0.55403538    -0.16000
C1066       C  0.18676778  0.95504988  0.55239141    -0.31200
H1067       H  0.18301893  0.91211025  0.57469329     0.13000
H1068       H  0.19022204  0.96665486  0.53158421     0.13600
C1069       C  0.03810922  0.71121819  0.55304753    -0.16000
C1070       C  0.06889801  0.71281648  0.54630959    -0.31200
H1071       H  0.03065259  0.72953680  0.54450393     0.13000
H1072       H  0.07452916  0.69315641  0.55489526     0.13600
C1073       C  0.40864228  0.83475605  0.81512794    -0.12900
C1074       C  0.43233622  0.86928457  0.80957569     0.09200
C1075       C  0.43218155  0.89544291  0.82745002    -0.12900
C1076       C  0.40867025  0.88735484  0.85018398    -0.12900
C1077       C  0.38387321  0.85302749  0.85500371     0.09200
C1078       C  0.38442861  0.82671074  0.83753876    -0.12900
H1079       H  0.40837330  0.81409146  0.80177582     0.13200
H1080       H  0.45058543  0.92222582  0.82406798     0.13200
H1081       H  0.40932862  0.90807172  0.86370301     0.13200
H1082       H  0.36559146  0.80005953  0.84079334     0.13200
C1083       C  0.11779525  0.93229843  0.84302956    -0.12900
C1084       C  0.11656422  0.95875831  0.85980938     0.09200
C1085       C  0.09029405  0.96777558  0.85575482    -0.12900
C1086       C  0.06728105  0.95267628  0.83366925    -0.12900
C1087       C  0.06962452  0.92770865  0.81565018     0.09200
C1088       C  0.09427842  0.91670385  0.82101164    -0.12900
H1089       H  0.13788766  0.92495973  0.84611586     0.13200
H1090       H  0.08868727  0.98773527  0.86885717     0.13200
H1091       H  0.04804081  0.96111330  0.83026814     0.13200
H1092       H  0.09638496  0.89738863  0.80741219     0.13200
C1093       C  0.11583124  0.95064595  0.69739099    -0.12900
C1094       C  0.08236466  0.92532669  0.69112016     0.09200
C1095       C  0.07400132  0.91369173  0.66289563    -0.12900
C1096       C  0.09830501  0.92874893  0.64088996    -0.12900
C1097       C  0.13139466  0.95543472  0.64689657     0.09200
C1098       C  0.14038694  0.96508373  0.67551018    -0.12900
H1099       H  0.12262884  0.95991700  0.71909718     0.13200
H1100       H  0.04810603  0.89437005  0.65772372     0.13200
H1101       H  0.09068053  0.92086192  0.61906559     0.13200
H1102       H  0.16592432  0.98510083  0.68075514     0.13200
C1103       C  0.41678810  0.83020817  0.67880989    -0.12900
C1104       C  0.43993262  0.86511295  0.68389941     0.09200
C1105       C  0.43939386  0.89033660  0.66629761    -0.12900
C1106       C  0.41508660  0.88110849  0.64496664    -0.12900
C1107       C  0.39043850  0.84656258  0.64118515     0.09200
C1108       C  0.39207978  0.82099491  0.65758392    -0.12900
H1109       H  0.41687862  0.81027623  0.69194661     0.13200
H1110       H  0.45741533  0.91737709  0.66935638     0.13200
H1111       H  0.41463188  0.90107919  0.63210017     0.13200
H1112       H  0.37336151  0.79414220  0.65473886     0.13200
C1113       C  0.07973945  0.67524825  0.81929286    -0.12900
C1114       C  0.07063360  0.64013910  0.81546581     0.09200
C1115       C  0.04637983  0.61594868  0.83415922    -0.12900
C1116       C  0.03016746  0.62632106  0.85531951    -0.12900
C1117       C  0.03721131  0.66096248  0.85778714     0.09200
C1118       C  0.06299359  0.68560309  0.84030319    -0.12900
H1119       H  0.09850812  0.69436886  0.80522091     0.13200
H1120       H  0.03938493  0.58879316  0.83203107     0.13200
H1121       H  0.01102010  0.60705560  0.86907773     0.13200
H1122       H  0.06903680  0.71253457  0.84209210     0.13200
C1123       C  0.14883700  0.53647983  0.80285952    -0.12900
C1124       C  0.14324997  0.56509850  0.80848764     0.09200
C1125       C  0.14792517  0.57916102  0.83618370    -0.12900
C1126       C  0.15602012  0.56353986  0.85837360    -0.12900
C1127       C  0.16026830  0.53395290  0.85313445     0.09200
C1128       C  0.15819293  0.52161165  0.82485482    -0.12900
H1129       H  0.14559206  0.52544508  0.78154131     0.13200
H1130       H  0.14363637  0.60123197  0.84089514     0.13200
H1131       H  0.15743628  0.57366799  0.87986900     0.13200
H1132       H  0.16231351  0.49949641  0.81999829     0.13200
C1133       C  0.17422370  0.57377952  0.68048573    -0.12900
C1134       C  0.13937021  0.56525645  0.68495796     0.09200
C1135       C  0.11453859  0.54103551  0.66670498    -0.12900
C1136       C  0.12412150  0.52501622  0.64483681    -0.12900
C1137       C  0.15862444  0.53218768  0.64115705     0.09200
C1138       C  0.18378917  0.55720962  0.65873444    -0.12900
H1139       H  0.19380915  0.59230157  0.69434966     0.13200
H1140       H  0.08754022  0.53427083  0.66944803     0.13200
H1141       H  0.10441891  0.50622530  0.63120201     0.13200
H1142       H  0.21056970  0.56306623  0.65617993     0.13200
C1143       C  0.03952974  0.64817044  0.69742225    -0.12900
C1144       C  0.06878985  0.64369183  0.69186450     0.09200
C1145       C  0.08366900  0.65012482  0.66440649    -0.12900
C1146       C  0.06791436  0.65817922  0.64225360    -0.12900
C1147       C  0.03737804  0.66069990  0.64730955     0.09200
C1148       C  0.02463049  0.65768728  0.67554961    -0.12900
H1149       H  0.02790044  0.64375288  0.71856585     0.13200
H1150       H  0.10634275  0.64690961  0.65972993     0.13200
H1151       H  0.07858299  0.66060024  0.62086080     0.13200
H1152       H  0.50807827  0.66871096  0.68098619     0.13200
C1153       C  0.41660395  0.57330487  0.83831697    -0.12900
C1154       C  0.42825848  0.58144073  0.81007773     0.09200
C1155       C  0.45426322  0.61459878  0.80371291    -0.12900
C1156       C  0.46922610  0.63910956  0.82553437    -0.12900
C1157       C  0.45942580  0.63033629  0.85417808     0.09200
C1158       C  0.43222496  0.59749558  0.86026309    -0.12900
H1159       H  0.39657005  0.54770141  0.84351087     0.13200
H1160       H  0.46340707  0.62126564  0.78195370     0.13200
H1161       H  0.99082169  0.66145929  0.81909192     0.13200
H1162       H  0.42407454  0.59003200  0.88208370     0.13200
C1163       C  0.35338758  0.94479310  0.84097390    -0.12900
C1164       C  0.35197611  0.93400912  0.81249757     0.09200
C1165       C  0.34225549  0.89945487  0.80570288    -0.12900
C1166       C  0.33516604  0.87589343  0.82737201    -0.12900
C1167       C  0.33897684  0.88703634  0.85596892     0.09200
C1168       C  0.34691439  0.92133799  0.86271734    -0.12900
H1169       H  0.36137164  0.97164796  0.84631069     0.13200
H1170       H  0.34150476  0.89108215  0.78368597     0.13200
H1171       H  0.32843788  0.84935628  0.82185826     0.13200
H1172       H  0.34985965  0.93031037  0.88468727     0.13200
C1173       C  0.43743676  0.62100985  0.65913716    -0.12900
C1174       C  0.46321626  0.61922454  0.64187901     0.09200
C1175       C  0.47199218  0.59268619  0.64600670    -0.12900
C1176       C  0.45703192  0.56976348  0.66831392    -0.12900
C1177       C  0.43222957  0.57228273  0.68637658     0.09200
C1178       C  0.42187682  0.59752860  0.68120738    -0.12900
H1179       H  0.43038926  0.64136409  0.65622699     0.13200
H1180       H  0.49151274  0.59064702  0.63264620     0.13200
H1181       H  0.46505553  0.55016796  0.67156119     0.13200
H1182       H  0.40271926  0.59986342  0.69482651     0.13200
C1183       C  0.35092533  0.93457412  0.66362182    -0.12900
C1184       C  0.35597507  0.92748566  0.69158694     0.09200
C1185       C  0.35254098  0.89482176  0.69766056    -0.12900
C1186       C  0.34503486  0.86989119  0.67597811    -0.12900
C1187       C  0.34251659  0.87770062  0.64749653     0.09200
C1188       C  0.34449094  0.90999125  0.64172069    -0.12900
H1189       H  0.35375315  0.95974966  0.65847551     0.13200
H1190       H  0.35623073  0.88881703  0.71914249     0.13200
H1191       H  0.34254123  0.84490900  0.68129453     0.13200
H1192       H  0.34251774  0.91675842  0.62006194     0.13200
C1193       C  0.43167403  0.67387653  0.55639358    -0.16000
C1194       C  0.46402119  0.67808994  0.55225913    -0.31200
H1195       H  0.42135990  0.67197412  0.57792680     0.13000
H1196       H  0.47523915  0.68236085  0.53090475     0.13600
C1197       C  0.31734033  0.57477804  0.44442279    -0.16000
C1198       C  0.31448631  0.54291782  0.44686986    -0.31200
H1199       H  0.31798789  0.58508110  0.42348304     0.13000
H1200       H  0.31059402  0.53164742  0.46786375     0.13600
C1201       C  0.22638926  0.53169945  0.55465807    -0.16000
C1202       C  0.23052217  0.56163350  0.54371739    -0.31200
H1203       H  0.24561535  0.52308728  0.55012496     0.13000
H1204       H  0.21008383  0.56893157  0.54656796     0.13600
C1205       C  0.46378119  0.78581303  0.44823204    -0.16000
C1206       C  0.43330296  0.78472027  0.45538470    -0.31200
H1207       H  0.47064478  0.76666139  0.45587390     0.13000
H1208       H  0.42827211  0.80503267  0.44735711     0.13600
C1209       C  0.21697289  0.68466009  0.43835381    -0.16000
C1210       C  0.22549612  0.66004700  0.44568667    -0.31200
H1211       H  0.23139021  0.71073722  0.44683954     0.13000
H1212       H  0.21028291  0.63365958  0.43809776     0.13600
C1213       C  0.34276893  0.75962357  0.55307159    -0.16000
C1214       C  0.33015533  0.78260589  0.55327405    -0.31200
H1215       H  0.35426154  0.75589541  0.57196463     0.13000
H1216       H  0.31841859  0.78510634  0.53399014     0.13600
C1217       C  0.21322046  0.53765469  0.94663575    -0.16000
C1218       C  0.21452898  0.56831256  0.95337830    -0.31200
H1219       H  0.23187836  0.53053255  0.95493583     0.13000
H1220       H  0.19466871  0.57371708  0.94497588     0.13600
C1221       C  0.21601620  0.66940236  0.05213024    -0.16000
C1222       C  0.23934792  0.65729160  0.05228595    -0.31200
H1223       H  0.21324981  0.68079285  0.03272721     0.13000
H1224       H  0.24331074  0.64622534  0.07135533     0.13600
C1225       C  0.42403196  0.68131998  0.94521784    -0.16000
C1226       C  0.45666876  0.68633412  0.94749177    -0.31200
H1227       H  0.41344159  0.68029174  0.92435387     0.13000
H1228       H  0.46806595  0.69079741  0.96845244     0.13600
C1229       C  0.33614295  0.54032195  0.04735909    -0.16000
C1230       C  0.31604296  0.55587893  0.04732178    -0.31200
H1231       H  0.35828654  0.54912469  0.03293133     0.13000
H1232       H  0.29445192  0.54750429  0.06233124     0.13600
C1233       C  0.43692312  0.76492185  0.04592959    -0.16000
C1234       C  0.46656350  0.76861053  0.05694826    -0.31200
H1235       H  0.42970312  0.78538924  0.04929670     0.13000
H1236       H  0.47537422  0.74956340  0.05220316     0.13600
C1237       C  0.34260597  0.77618222  0.94784036    -0.16000
C1238       C  0.31855009  0.78517994  0.93998714    -0.31200
H1239       H  0.36940587  0.79182710  0.94159365     0.13000
H1240       H  0.29201579  0.76999884  0.94717590     0.13600
O1241       O  0.85384992  0.10556190  0.02200013    -0.80500
O1242       O  0.85671582  0.23571957  0.96834637    -0.65200
O1243       O  0.84424080  0.16510505  0.02009205    -1.11800
C1244       C  0.74271993  0.09835463  0.96730917     1.06400
O1245       O  0.80208212  0.22479981  0.97138567    -0.78400
O1246       O  0.75835204  0.17423819  0.00559778    -0.66000
Ni1247     Ni  0.88147511  0.15532777  0.02824440     1.34900
C1248       C  0.75890330  0.15784628  0.02727750     0.85100
O1249       O  0.89050554  0.23481772  0.01488320    -0.78900
O1250       O  0.91177602  0.20364672  0.03666716    -0.89200
C1251       C  0.83310373  0.24381581  0.96354719     0.84700
O1252       O  0.90180989  0.16083233  0.99085557    -0.67400
O1253       O  0.74400466  0.12730003  0.96196062    -0.86700
C1254       C  0.90118100  0.17771218  0.96944738     0.85500
C1255       C  0.91237538  0.23232015  0.03080256     1.07100
H1256       H  0.81972902  0.15988691  0.95734992     0.38900
O1257       O  0.81245457  0.16579913  0.97538347    -1.09300
O1258       O  0.77505417  0.14002037  0.02767499    -0.66000
Ni1259     Ni  0.80454469  0.13006467  0.00160668     1.26300
O1260       O  0.88229005  0.19259588  0.96838920    -0.66200
O1261       O  0.76521225  0.09523696  0.98187481    -0.78500
C1262       C  0.82309479  0.08703441  0.03136082     0.84900
O1263       O  0.79987190  0.09603527  0.02808036    -0.65700
Ni1264     Ni  0.77502472  0.17542841  0.96757446     1.27400
Ni1265     Ni  0.85183861  0.20087886  0.99434570     1.26100
H1266       H  0.83712859  0.17103922  0.03818243     0.39500
O1267       O  0.77726958  0.20073490  0.46955382    -0.80500
O1268       O  0.90585303  0.20005493  0.52686183    -0.65200
O1269       O  0.83534296  0.18909300  0.47535616    -1.11800
C1270       C  0.76723621  0.09029257  0.53185402     1.06400
O1271       O  0.89393707  0.14507137  0.52307037    -0.78400
O1272       O  0.83808980  0.09861569  0.49205963    -0.66000
Ni1273     Ni  0.82670457  0.22749107  0.46879990     1.34900
C1274       C  0.82210889  0.10010405  0.47036499     0.85100
O1275       O  0.90620757  0.23399753  0.48025023    -0.78900
O1276       O  0.87506181  0.25922061  0.46604675    -0.89200
C1277       C  0.91383492  0.17618779  0.53091968     0.84700
O1278       O  0.82473491  0.23938855  0.50763013    -0.67400
O1279       O  0.79550891  0.09031870  0.53798749    -0.86700
C1280       C  0.84373863  0.24106902  0.52807115     0.85500
C1281       C  0.90359157  0.25860889  0.46864123     1.07100
H1282       H  0.83046720  0.16545979  0.53840340     0.38900
O1283       O  0.83577385  0.15747782  0.52046195    -1.09300
O1284       O  0.80780114  0.11946948  0.46912637    -0.66000
Ni1285     Ni  0.79998240  0.15034291  0.49474959     1.26300
O1286       O  0.86383772  0.22734640  0.52698782    -0.66200
O1287       O  0.76546186  0.11221821  0.51551141    -0.78500
C1288       C  0.75792234  0.16944844  0.46268330     0.84900
O1289       O  0.76535942  0.14562570  0.46858986    -0.65700
Ni1290     Ni  0.84400688  0.11928877  0.52932588     1.27400
Ni1291     Ni  0.87131873  0.19599825  0.50102121     1.26100
H1292       H  0.84049954  0.18171302  0.45706626     0.39500
O1293       O  0.88968793  0.03894018  0.72013112    -0.74000
O1294       O  0.84638082  0.47208531  0.77999098    -0.74000
O1295       O  0.88756902  0.04164371  0.77821555    -0.74100
O1296       O  0.84843232  0.46845321  0.72199726    -0.74100
O1297       O  0.89568536  0.46168981  0.72491188    -0.74100
O1298       O  0.93663348  0.03794114  0.77907126    -0.74100
O1299       O  0.89491871  0.46741487  0.78199718    -0.74000
O1300       O  0.93805614  0.03400995  0.72126337    -0.74100
Ni1301     Ni  0.86855313  0.00573717  0.74955502     1.25400
Ni1302     Ni  0.92084977  0.00126936  0.75107134     1.25400
C1303       C  0.91992785  0.04660310  0.71044079     0.88200
C1304       C  0.86417948  0.45897871  0.79058969     0.88100
C1305       C  0.91768297  0.05136611  0.78817276     0.88100
C1306       C  0.86617637  0.45315703  0.71425830     0.88300
O1307       O  0.59808687  0.06385689  0.71978719    -0.74000
O1308       O  0.56723121  0.09970368  0.78249570    -0.74000
O1309       O  0.56339211  0.10098137  0.72493721    -0.74100
O1310       O  0.60242745  0.06295836  0.77724159    -0.74100
O1311       O  0.65071266  0.11308619  0.77834277    -0.74100
O1312       O  0.61401816  0.14846514  0.72158948    -0.74100
O1313       O  0.61509239  0.15004571  0.78003543    -0.74000
O1314       O  0.64901575  0.11117038  0.72011146    -0.74100
Ni1315     Ni  0.58105614  0.08020223  0.75118272     1.25400
Ni1316     Ni  0.63404561  0.13251786  0.74998359     1.25400
C1317       C  0.62859298  0.08137240  0.70962355     0.88200
C1318       C  0.58570196  0.13056902  0.79166095     0.88100
C1319       C  0.58265092  0.13050608  0.71396372     0.88100
C1320       C  0.63270990  0.08203543  0.78686288     0.88300
O1321       O  0.53926774  0.43932423  0.77956786    -0.74000
O1322       O  0.97331783  0.40806262  0.71882287    -0.74000
O1323       O  0.96939175  0.40921922  0.77665850    -0.74100
O1324       O  0.54551837  0.43961969  0.72197900    -0.74100
O1325       O  0.54217223  0.38712953  0.72172557    -0.74100
O1326       O  0.96729330  0.35740300  0.77827714    -0.74100
O1327       O  0.96952874  0.35552167  0.72030209    -0.74000
O1328       O  0.53755485  0.38758938  0.78006310    -0.74100
Ni1329     Ni  0.50817332  0.42665916  0.74891718     1.25400
Ni1330     Ni  0.50512789  0.37070542  0.74944773     1.25400
C1331       C  0.54805801  0.41816862  0.79042911     0.88200
C1332       C  0.96087767  0.37693159  0.70953049     0.88100
C1333       C  0.95702030  0.37902404  0.78728902     0.88100
C1334       C  0.55554931  0.41804197  0.71249803     0.88300
C1335       C  0.98163638  0.16591657  0.57296778     0.02700
C1336       C  0.51729915  0.18967819  0.57701621     0.02700
C1337       C  0.53419672  0.18781151  0.60174884    -0.17900
C1338       C  0.51686354  0.16395833  0.62330847     0.02700
C1339       C  0.98236949  0.14073179  0.61873139     0.02700
C1340       C  0.96456008  0.14318928  0.59527577    -0.17900
H1341       H  0.93705838  0.12624031  0.59392229     0.04700
H1342       H  0.56150530  0.20488339  0.60414214     0.04700
C1343       C  0.70102105  0.01431364  0.57635481     0.02700
C1344       C  0.68428652  0.47671470  0.57648035     0.02700
C1345       C  0.66101787  0.45942418  0.59898408    -0.17900
C1346       C  0.65470856  0.47762197  0.62148713     0.02700
C1347       C  0.66899796  0.01422976  0.62000909     0.02700
C1348       C  0.69327566  0.03199502  0.59855892    -0.17900
H1349       H  0.70638630  0.05996474  0.59932660     0.04700
H1350       H  0.64689667  0.43151488  0.59878710     0.04700
C1351       C  0.80626483  0.33286068  0.92288041     0.02700
C1352       C  0.82505400  0.31375026  0.92098149     0.02700
C1353       C  0.84893621  0.31999571  0.89832417    -0.17900
C1354       C  0.85441164  0.34453449  0.87758463     0.02700
C1355       C  0.83422329  0.36200511  0.87864628     0.02700
C1356       C  0.81137773  0.35678107  0.90148694    -0.17900
H1357       H  0.79804085  0.37220763  0.90233710     0.04700
H1358       H  0.86335894  0.30556875  0.89653625     0.04700
C1359       C  0.80990694  0.32260170  0.58000639     0.02700
C1360       C  0.83126683  0.30613222  0.57869521     0.02700
C1361       C  0.85632100  0.31452689  0.59976855    -0.17900
C1362       C  0.85975307  0.33767862  0.62210695     0.02700
C1363       C  0.83722112  0.35254405  0.62423834     0.02700
C1364       C  0.81276384  0.34489180  0.60311460    -0.17900
H1365       H  0.79525214  0.35597614  0.60511171     0.04700
H1366       H  0.87467057  0.30450702  0.59839750     0.04700
C1367       C  0.67007214  0.48099833  0.92637346     0.02700
C1368       C  0.69021461  0.01630655  0.92420350     0.02700
C1369       C  0.68936066  0.03322910  0.89917872    -0.17900
C1370       C  0.66607410  0.01592572  0.87726038     0.02700
C1371       C  0.64440564  0.47892153  0.88031963     0.02700
C1372       C  0.64745869  0.46245009  0.90442000    -0.17900
H1373       H  0.63063344  0.43500875  0.90680870     0.04700
H1374       H  0.70666416  0.06056126  0.89699226     0.04700
C1375       C  0.97740406  0.18372174  0.92203662     0.02700
C1376       C  0.51382150  0.20278890  0.92239672     0.02700
C1377       C  0.53268045  0.19633349  0.90037591    -0.17900
C1378       C  0.51640430  0.17083604  0.87940450     0.02700
C1379       C  0.97978268  0.15252653  0.87832725     0.02700
C1380       C  0.96094447  0.15920651  0.90005208    -0.17900
H1381       H  0.93312354  0.14444451  0.90001631     0.04700
H1382       H  0.56053069  0.21117315  0.89960023     0.04700
O1383       O  0.60753196  0.35610372  0.47532037    -0.80500
O1384       O  0.73691589  0.35688115  0.52888451    -0.65200
O1385       O  0.66568676  0.34413707  0.47774745    -1.11800
C1386       C  0.59965097  0.24466639  0.53366578     1.06400
O1387       O  0.72551736  0.30228760  0.52471632    -0.78400
O1388       O  0.67334833  0.25828229  0.49262644    -0.66000
Ni1389     Ni  0.65741594  0.38214446  0.46845957     1.34900
C1390       C  0.65607526  0.25848102  0.47149135     0.85100
O1391       O  0.73613687  0.38955530  0.48166920    -0.78900
O1392       O  0.70595338  0.41116883  0.45905461    -0.89200
C1393       C  0.74438374  0.33281713  0.53367348     0.84700
O1394       O  0.66389082  0.40369436  0.50550376    -0.67400
O1395       O  0.62865929  0.24560602  0.53788391    -0.86700
C1396       C  0.68008263  0.40249523  0.52718068     0.85500
C1397       C  0.73430396  0.41120471  0.46506154     1.07100
H1398       H  0.66213043  0.32120337  0.54110643     0.38900
O1399       O  0.66708902  0.31336938  0.52292462    -1.09300
O1400       O  0.63820360  0.27457811  0.47170477    -0.66000
Ni1401     Ni  0.63054700  0.30553563  0.49778982     1.26300
O1402       O  0.69444800  0.38316024  0.52845255    -0.66200
O1403       O  0.59611733  0.26706112  0.51912029    -0.78500
C1404       C  0.58746161  0.32469466  0.46818560     0.84900
O1405       O  0.59552863  0.30091988  0.47240434    -0.65700
Ni1406     Ni  0.67651022  0.27577909  0.53051873     1.27400
Ni1407     Ni  0.70197593  0.35186988  0.50301381     1.26100
H1408       H  0.67080701  0.33595820  0.45984994     0.39500
O1409       O  0.69534209  0.27386746  0.02662108    -0.80500
O1410       O  0.70192625  0.40582175  0.97487349    -0.65200
O1411       O  0.68657472  0.33363541  0.02583392    -1.11800
C1412       C  0.58836121  0.26930820  0.96795729     1.06400
O1413       O  0.64754876  0.39598063  0.97852343    -0.78400
O1414       O  0.59854018  0.34061210  0.00847914    -0.66000
Ni1415     Ni  0.72291249  0.32246380  0.03366983     1.34900
C1416       C  0.59873116  0.32373536  0.03004779     0.85100
O1417       O  0.73541724  0.40385332  0.02119443    -0.78900
O1418       O  0.75402801  0.36983414  0.04171881    -0.89200
C1419       C  0.67888846  0.41486767  0.97064474     0.84700
O1420       O  0.74152548  0.32604653  0.99620188    -0.67400
O1421       O  0.58936100  0.29817622  0.96207010    -0.86700
C1422       C  0.74093198  0.34262135  0.97471662     0.85500
C1423       C  0.75681460  0.39937692  0.03626606     1.07100
H1424       H  0.66412750  0.33070452  0.96279755     0.38900
O1425       O  0.65647522  0.33630939  0.98074448    -1.09300
O1426       O  0.61698833  0.30820502  0.03137846    -0.66000
Ni1427     Ni  0.64755677  0.29962393  0.00589575     1.26300
O1428       O  0.72504538  0.36061351  0.97448085    -0.66200
O1429       O  0.60947708  0.26650578  0.98449435    -0.78500
C1430       C  0.66476861  0.25536823  0.03552683     0.84900
O1431       O  0.64136704  0.26395328  0.03146791    -0.65700
Ni1432     Ni  0.61981092  0.34640777  0.97147173     1.27400
Ni1433     Ni  0.69583985  0.37045771  0.00051828     1.26100
H1434       H  0.67900657  0.33905999  0.04392770     0.39500
O1435       O  0.96513714  0.12471161  0.21998461    -0.74000
O1436       O  0.52975328  0.15007105  0.28011547    -0.74000
O1437       O  0.53107253  0.15130655  0.22213142    -0.74100
O1438       O  0.96208543  0.12309681  0.27799974    -0.74100
O1439       O  0.95793749  0.07029092  0.27498478    -0.74100
O1440       O  0.52879673  0.09927354  0.22169975    -0.74100
O1441       O  0.52505561  0.09708038  0.27930146    -0.74000
O1442       O  0.96402170  0.07313256  0.21783605    -0.74100
Ni1443     Ni  0.99840471  0.14054769  0.24969610     1.25400
Ni1444     Ni  0.99547931  0.08455777  0.24829234     1.25400
C1445       C  0.95398733  0.09436601  0.20914537     0.88200
C1446       C  0.53811721  0.12784061  0.28957430     0.88100
C1447       C  0.54163888  0.13015336  0.21249986     0.88100
C1448       C  0.94819681  0.09154407  0.28572010     0.88300
O1449       O  0.90989384  0.43838728  0.27986952    -0.74000
O1450       O  0.93916896  0.39559904  0.22063038    -0.74000
O1451       O  0.91007046  0.43822890  0.22178872    -0.74100
O1452       O  0.93947655  0.39614276  0.27792322    -0.74100
O1453       O  0.88703343  0.35081251  0.27924159    -0.74100
O1454       O  0.85779770  0.39283232  0.22170700    -0.74100
O1455       O  0.88694637  0.34983632  0.22107998    -0.74000
O1456       O  0.85744519  0.39320705  0.27981088    -0.74100
Ni1457     Ni  0.92640663  0.41873973  0.25004832     1.25400
Ni1458     Ni  0.87039605  0.37001591  0.25045922     1.25400
C1459       C  0.87898433  0.42271391  0.28987748     0.88200
C1460       C  0.91790016  0.36558587  0.21133819     0.88100
C1461       C  0.87944527  0.42245882  0.21202911     0.88100
C1462       C  0.91826839  0.36667343  0.28780225     0.88300
C1463       C  0.82060103  0.02704991  0.42155171     0.02700
C1464       C  0.80346253  0.48829228  0.42240845     0.02700
C1465       C  0.81284496  0.47136763  0.40058486    -0.17900
C1466       C  0.83768139  0.48983566  0.37957738     0.02700
C1467       C  0.85169488  0.02757511  0.37714767     0.02700
C1468       C  0.84345772  0.04498054  0.39908775    -0.17900
H1469       H  0.85560040  0.07289004  0.39879283     0.04700
H1470       H  0.80031533  0.44343092  0.39956783     0.04700
O1471       O  0.60404858  0.46161349  0.27935329    -0.74000
O1472       O  0.64195839  0.02597390  0.21843656    -0.74000
O1473       O  0.64500720  0.03029885  0.27632402    -0.74100
O1474       O  0.60206679  0.45712620  0.22152913    -0.74100
O1475       O  0.55341706  0.46160877  0.22248065    -0.74100
O1476       O  0.59736657  0.03670914  0.27648044    -0.74100
O1477       O  0.59257101  0.02911998  0.21930427    -0.74000
O1478       O  0.55579485  0.46683666  0.28051026    -0.74100
Ni1479     Ni  0.62334470  0.49375984  0.24892529     1.25400
Ni1480     Ni  0.57128006  0.49873369  0.24997495     1.25400
C1481       C  0.57440215  0.45419917  0.29034231     0.88200
C1482       C  0.62237138  0.03744314  0.20844954     0.88100
C1483       C  0.62786924  0.04572269  0.28522779     0.88100
C1484       C  0.57177450  0.44797755  0.21228516     0.88300
C1485       C  0.83376022  0.02054996  0.07366488     0.02700
C1486       C  0.81572204  0.48375278  0.07565706     0.02700
C1487       C  0.82104231  0.46869826  0.10019416    -0.17900
C1488       C  0.84409617  0.48859394  0.12144091     0.02700
C1489       C  0.86059970  0.02593538  0.11978870     0.02700
C1490       C  0.85561993  0.04079689  0.09545875    -0.17900
H1491       H  0.86909307  0.06864566  0.09338625     0.04700
H1492       H  0.80746819  0.44100302  0.10281362     0.04700
C1493       C  0.69027425  0.17803521  0.41785568     0.02700
C1494       C  0.66878855  0.19434839  0.41950762     0.02700
C1495       C  0.64442968  0.18696155  0.39798822    -0.17900
C1496       C  0.64135290  0.16446397  0.37515680     0.02700
C1497       C  0.66387267  0.14953768  0.37287406     0.02700
C1498       C  0.68792120  0.15654687  0.39427288    -0.17900
H1499       H  0.70545470  0.14550058  0.39217283     0.04700
H1500       H  0.62613146  0.19704148  0.39951298     0.04700
C1501       C  0.69206871  0.16764330  0.07794214     0.02700
C1502       C  0.67428850  0.18776348  0.07948006     0.02700
C1503       C  0.65138192  0.18352055  0.10247407    -0.17900
C1504       C  0.64434136  0.15880701  0.12332324     0.02700
C1505       C  0.66096773  0.13779566  0.12113470     0.02700
C1506       C  0.68478723  0.14270800  0.09896627    -0.17900
H1507       H  0.69604919  0.12536695  0.09749476     0.04700
H1508       H  0.63932777  0.20017607  0.10466310     0.04700
C1509       C  0.98481301  0.31109805  0.42500178     0.02700
C1510       C  0.51844346  0.33335845  0.42714303     0.02700
C1511       C  0.53462717  0.35687187  0.40512880    -0.20700
C1512       C  0.51647974  0.35766493  0.38129137     0.02700
C1513       C  0.98384342  0.33471555  0.37829284     0.02700
C1514       C  0.96736175  0.31120462  0.40017213    -0.17900
H1515       H  0.94019821  0.29325546  0.39816376     0.04700
H1516       H  0.56160399  0.37559740  0.40695644     0.04700
C1517       C  0.52263605  0.31744263  0.07731960     0.02700
C1518       C  0.98633241  0.29593686  0.07744410     0.02700
C1519       C  0.96670850  0.29948313  0.10029945    -0.17900
C1520       C  0.98202893  0.32358537  0.12229329     0.02700
C1521       C  0.51803353  0.34656165  0.12137425     0.02700
C1522       C  0.53797607  0.34230620  0.09923402    -0.17900
H1523       H  0.56537643  0.35978878  0.09833018     0.04700
H1524       H  0.93907702  0.28296109  0.10122572     0.04700
C1525       C  0.56218630  0.38654946  0.34419533    -0.12900
C1526       C  0.53429506  0.38524531  0.36039739     0.09200
C1527       C  0.52143672  0.40839446  0.35490087    -0.12900
C1528       C  0.53461967  0.43088000  0.33212510    -0.12900
C1529       C  0.56149688  0.43118652  0.31496077     0.09200
C1530       C  0.57578172  0.40946671  0.32160877    -0.12900
H1531       H  0.57240463  0.36885035  0.34828179     0.13200
H1532       H  0.00329991  0.40866984  0.36679966     0.13200
H1533       H  0.52353835  0.44778637  0.32778993     0.13200
H1534       H  0.59668816  0.40942829  0.30882331     0.13200
C1535       C  0.53346537  0.42204930  0.17053716    -0.12900
C1536       C  0.55857626  0.42242638  0.18869342     0.09200
C1537       C  0.57245042  0.39965225  0.18300738    -0.12900
C1538       C  0.56042041  0.37596717  0.16025755    -0.12900
C1539       C  0.53461359  0.37495636  0.14266189     0.09200
C1540       C  0.52206515  0.39896237  0.14743821    -0.12900
H1541       H  0.52287488  0.43982005  0.17402443     0.13200
H1542       H  0.59212290  0.39969675  0.19650293     0.13200
H1543       H  0.57037422  0.35765278  0.15697595     0.13200
H1544       H  0.00342463  0.39789059  0.13513928     0.13200
C1545       C  0.64899995  0.10721027  0.29954402    -0.12900
C1546       C  0.64303699  0.07388915  0.30630089     0.09200
C1547       C  0.64897392  0.06698887  0.33402433    -0.12900
C1548       C  0.65788533  0.09239854  0.35541064    -0.12900
C1549       C  0.66150765  0.12519114  0.34919386     0.09200
C1550       C  0.65906065  0.13296331  0.32070043    -0.12900
H1551       H  0.64493237  0.11299305  0.27809875     0.13200
H1552       H  0.64461737  0.04136035  0.33948689     0.13200
H1553       H  0.65988631  0.08578401  0.37711540     0.13200
H1554       H  0.66271849  0.15832730  0.31519382     0.13200
C1555       C  0.66832204  0.08354855  0.17909650    -0.12900
C1556       C  0.63347123  0.06035772  0.18391956     0.09200
C1557       C  0.60840964  0.06024753  0.16586641    -0.12900
C1558       C  0.61778508  0.08409541  0.14418760    -0.12900
C1559       C  0.65221459  0.10909128  0.14079089     0.09200
C1560       C  0.67766250  0.10799404  0.15763694    -0.12900
H1561       H  0.68800072  0.08386372  0.19274546     0.13200
H1562       H  0.58141166  0.04212360  0.16889467     0.13200
H1563       H  0.59796796  0.08415993  0.13092187     0.13200
H1564       H  0.70441742  0.12702053  0.15504982     0.13200
C1565       C  0.91698598  0.34725513  0.33751077    -0.12900
C1566       C  0.93054970  0.35161297  0.30965969     0.09200
C1567       C  0.95911961  0.34601179  0.30377839    -0.12900
C1568       C  0.97476641  0.33750853  0.32567376    -0.12900
C1569       C  0.96307692  0.33606856  0.35406416     0.09200
C1570       C  0.93325161  0.33976184  0.35958062    -0.12900
H1571       H  0.89521269  0.35188534  0.34250188     0.13200
H1572       H  0.96998273  0.34933128  0.28238543     0.13200
H1573       H  0.99727266  0.33411448  0.32071869     0.13200
H1574       H  0.92372628  0.33887349  0.38123059     0.13200
C1575       C  0.92173030  0.35084307  0.16043213    -0.12900
C1576       C  0.92946620  0.34924645  0.18894811     0.09200
C1577       C  0.95088347  0.33475862  0.19566818    -0.12900
C1578       C  0.96581030  0.32347041  0.17391115    -0.12900
C1579       C  0.95993258  0.32717772  0.14521616     0.09200
C1580       C  0.93677083  0.33971176  0.13865280    -0.12900
H1581       H  0.90545716  0.36227929  0.15499658     0.13200
H1582       H  0.95706278  0.33343013  0.21765094     0.13200
H1583       H  0.98361786  0.31386476  0.17934505     0.13200
H1584       H  0.93225543  0.34311637  0.11665974     0.13200
C1585       C  0.83318329  0.42656168  0.32079902    -0.12900
C1586       C  0.86822866  0.43875083  0.31358061     0.09200
C1587       C  0.89310334  0.46624319  0.32950069    -0.12900
C1588       C  0.88317936  0.48155492  0.35183326    -0.12900
C1589       C  0.84811732  0.47066979  0.35805972     0.09200
C1590       C  0.82321886  0.44252790  0.34270970    -0.12900
H1591       H  0.81342056  0.40521057  0.30907131     0.13200
H1592       H  0.92031237  0.47586996  0.32478727     0.13200
H1593       H  0.90440364  0.00476914  0.36382303     0.13200
H1594       H  0.79603647  0.43352933  0.34711292     0.13200
C1595       C  0.88716654  0.48053305  0.15060296    -0.12900
C1596       C  0.85260108  0.47086743  0.14454729     0.09200
C1597       C  0.82658427  0.44419300  0.16045930    -0.12900
C1598       C  0.83503768  0.42818127  0.18230697    -0.12900
C1599       C  0.86969676  0.43876313  0.18888215     0.09200
C1600       C  0.89558252  0.46513770  0.17270640    -0.12900
H1601       H  0.90782551  0.50019079  0.13820762     0.13200
H1602       H  0.79971555  0.43603863  0.15621700     0.13200
H1603       H  0.81448250  0.40786954  0.19428977     0.13200
H1604       H  0.92253893  0.47360973  0.17684396     0.13200
C1605       C  0.92927120  0.09280090  0.33580584    -0.12900
C1606       C  0.92136201  0.07933352  0.30800896     0.09200
C1607       C  0.88907020  0.05140548  0.30246177    -0.12900
C1608       C  0.86529538  0.03631745  0.32469455    -0.12900
C1609       C  0.87424997  0.04770523  0.35301716     0.09200
C1610       C  0.90597266  0.07690597  0.35824230    -0.12900
H1611       H  0.95428827  0.11422552  0.34038616     0.13200
H1612       H  0.88263220  0.04077966  0.28105768     0.13200
H1613       H  0.83915015  0.51719895  0.32255621     0.13200
H1614       H  0.91347596  0.08630199  0.37981074     0.13200
C1615       C  0.91714541  0.07310712  0.13605410    -0.12900
C1616       C  0.88303397  0.04875291  0.14245831     0.09200
C1617       C  0.87138744  0.04390145  0.17095309    -0.12900
C1618       C  0.89438051  0.06058459  0.19287424    -0.12900
C1619       C  0.92892489  0.08300390  0.18645933     0.09200
C1620       C  0.94007585  0.09012801  0.15804413    -0.12900
H1621       H  0.92655027  0.07724423  0.11419558     0.13200
H1622       H  0.84500425  0.02563646  0.17623835     0.13200
H1623       H  0.88564452  0.05479335  0.21482183     0.13200
H1624       H  0.96688242  0.10720180  0.15295523     0.13200
C1625       C  0.58528367  0.17238240  0.31900468    -0.12900
C1626       C  0.56307593  0.13753720  0.31270234     0.09200
C1627       C  0.56509126  0.11176862  0.32852714    -0.12900
C1628       C  0.58944124  0.12064871  0.34979514    -0.12900
C1629       C  0.61298955  0.15536938  0.35493294     0.09200
C1630       C  0.61023248  0.18123704  0.33989091    -0.12900
H1631       H  0.58405146  0.19271818  0.30722747     0.13200
H1632       H  0.54791656  0.08471186  0.32441610     0.13200
H1633       H  0.59067424  0.10035872  0.36164679     0.13200
H1634       H  0.62803166  0.20818422  0.34374105     0.13200
C1635       C  0.60179681  0.14594204  0.19693644    -0.12900
C1636       C  0.56886202  0.14114355  0.19033338     0.09200
C1637       C  0.56146683  0.14456165  0.16206876    -0.12900
C1638       C  0.58632877  0.15128276  0.14043353    -0.12900
C1639       C  0.61911332  0.15505423  0.14679029     0.09200
C1640       C  0.62692210  0.15350381  0.17544647    -0.12900
H1641       H  0.60791989  0.14344944  0.21868648     0.13200
H1642       H  0.53605754  0.14072198  0.15661158     0.13200
H1643       H  0.57956583  0.15233995  0.11858572     0.13200
H1644       H  0.65217056  0.15708935  0.18108103     0.13200
C1645       C  0.65642543  0.22361692  0.05107726    -0.16000
C1646       C  0.68101468  0.21518647  0.05858253    -0.31200
H1647       H  0.62994514  0.20829483  0.05832275     0.13000
H1648       H  0.70720333  0.23000020  0.05048922     0.13600
C1649       C  0.54417534  0.31668849  0.05244576    -0.16000
C1650       C  0.57689046  0.32212120  0.05508317    -0.31200
H1651       H  0.53290158  0.31165532  0.03140893     0.13000
H1652       H  0.58733690  0.32379315  0.07612909     0.13600
C1653       C  0.79046803  0.46068707  0.05407666    -0.16000
C1654       C  0.78683638  0.42872308  0.04916594    -0.31200
H1655       H  0.77301029  0.46862609  0.04457958     0.13000
H1656       H  0.80574070  0.42220933  0.05792768     0.13600
C1657       C  0.66972582  0.21645395  0.44478069    -0.16000
C1658       C  0.65641802  0.23887240  0.44535436    -0.31200
H1659       H  0.68121277  0.21361660  0.46407800     0.13000
H1660       H  0.64512163  0.24298439  0.42651381     0.13600
C1661       C  0.55437241  0.31502208  0.45369743    -0.16000
C1662       C  0.54038546  0.33639086  0.45169702    -0.31200
H1663       H  0.54325648  0.29093126  0.44151563     0.13000
H1664       H  0.55234502  0.36110890  0.46291961     0.13600
C1665       C  0.77319474  0.46729335  0.44145205    -0.16000
C1666       C  0.76693821  0.43600601  0.45089456    -0.31200
H1667       H  0.75499966  0.47705778  0.44662307     0.13000
H1668       H  0.78661021  0.42770583  0.44769934     0.13600
C1669       C  0.53312273  0.23212267  0.94264743    -0.16000
C1670       C  0.56330735  0.23716244  0.95352200    -0.31200
H1671       H  0.52360741  0.25067854  0.94709326     0.13000
H1672       H  0.57094700  0.21693916  0.95063021     0.13600
C1673       C  0.68907530  0.44743012  0.95518539    -0.16000
C1674       C  0.66773960  0.46122414  0.95217139    -0.31200
H1675       H  0.71300265  0.45771160  0.94281441     0.13000
H1676       H  0.64323384  0.45008914  0.96370477     0.13600
C1677       C  0.78299405  0.31565129  0.55853455    -0.16000
C1678       C  0.77532189  0.34051491  0.55018464    -0.31200
H1679       H  0.76815955  0.28936991  0.55059957     0.13000
H1680       H  0.79077013  0.36699935  0.55745154     0.13600
C1681       C  0.78354700  0.32998641  0.94814009    -0.16000
C1682       C  0.75975003  0.34146730  0.94857056    -0.31200
H1683       H  0.78773216  0.31965134  0.96758826     0.13000
H1684       H  0.75408353  0.35126093  0.92956978     0.13600
C1685       C  0.68189041  0.42387893  0.55266763    -0.16000
C1686       C  0.68635630  0.45645442  0.55100881    -0.31200
H1687       H  0.68080545  0.41287141  0.57336920     0.13000
H1688       H  0.69081929  0.46834691  0.53023912     0.13600
C1689       C  0.53889957  0.21371245  0.55406437    -0.16000
C1690       C  0.57001438  0.21580562  0.54773288    -0.31200
H1691       H  0.53103473  0.23140951  0.54488534     0.13000
H1692       H  0.57598580  0.19661538  0.55679586     0.13600
C1693       C  0.90784485  0.33495584  0.81618390    -0.12900
C1694       C  0.93134004  0.36960581  0.81085130     0.09200
C1695       C  0.93078607  0.39554566  0.82875177    -0.12900
C1696       C  0.90684707  0.38712623  0.85117243    -0.12900
C1697       C  0.88217007  0.35268990  0.85565166     0.09200
C1698       C  0.88328415  0.32657527  0.83830749    -0.12900
H1699       H  0.90794025  0.31445551  0.80283041     0.13200
H1700       H  0.94908757  0.42239973  0.82555456     0.13200
H1701       H  0.90706590  0.40764711  0.86469739     0.13200
H1702       H  0.86459725  0.29983620  0.84140947     0.13200
C1703       C  0.61697493  0.43218311  0.84345246    -0.12900
C1704       C  0.61641405  0.45885803  0.86035923     0.09200
C1705       C  0.59077667  0.46879252  0.85633315    -0.12900
C1706       C  0.56807596  0.45471381  0.83391163    -0.12900
C1707       C  0.56997110  0.42971272  0.81565110     0.09200
C1708       C  0.59364800  0.41749032  0.82119655    -0.12900
H1709       H  0.63653015  0.42409975  0.84653513     0.13200
H1710       H  0.58969046  0.48893569  0.86955055     0.13200
H1711       H  0.54950521  0.46400132  0.83042977     0.13200
H1712       H  0.59525808  0.39798235  0.80750625     0.13200
C1713       C  0.61597315  0.45362772  0.69586446    -0.12900
C1714       C  0.58213924  0.42902752  0.68992071     0.09200
C1715       C  0.57295890  0.41786855  0.66168748    -0.12900
C1716       C  0.59699728  0.43251666  0.63941531    -0.12900
C1717       C  0.63060399  0.45829166  0.64517377     0.09200
C1718       C  0.64020342  0.46765495  0.67372280    -0.12900
H1719       H  0.62337452  0.46257875  0.71755213     0.13200
H1720       H  0.54674291  0.39914079  0.65677428     0.13200
H1721       H  0.58889530  0.42495950  0.61763792     0.13200
H1722       H  0.66609703  0.48704979  0.67875567     0.13200
C1723       C  0.91411360  0.33117167  0.68039089    -0.12900
C1724       C  0.93657053  0.36617606  0.68583506     0.09200
C1725       C  0.93551148  0.39137166  0.66854639    -0.12900
C1726       C  0.91178699  0.38186834  0.64674545    -0.12900
C1727       C  0.88802674  0.34709984  0.64238484     0.09200
C1728       C  0.88987198  0.32169277  0.65880584    -0.12900
H1729       H  0.91456458  0.31128923  0.69336221     0.13200
H1730       H  0.95289401  0.41851909  0.67199030     0.13200
H1731       H  0.91107778  0.40174827  0.63392678     0.13200
H1732       H  0.87173558  0.29471167  0.65560448     0.13200
C1733       C  0.57974333  0.17760357  0.81970187    -0.12900
C1734       C  0.57214295  0.14280676  0.81614058     0.09200
C1735       C  0.54908501  0.11843209  0.83537696    -0.12900
C1736       C  0.53245484  0.12808427  0.85670437    -0.12900
C1737       C  0.53792030  0.16223316  0.85900907     0.09200
C1738       C  0.56262360  0.18725533  0.84101556    -0.12900
H1739       H  0.59757084  0.19691915  0.80524634     0.13200
H1740       H  0.54328543  0.09156274  0.83353518     0.13200
H1741       H  0.51425962  0.10855806  0.87083226     0.13200
H1742       H  0.56751773  0.21386546  0.84267142     0.13200
C1743       C  0.65049608  0.03863002  0.80287997    -0.12900
C1744       C  0.64646976  0.06815440  0.80866074     0.09200
C1745       C  0.65336872  0.08296378  0.83612097    -0.12900
C1746       C  0.66145067  0.06691549  0.85805708    -0.12900
C1747       C  0.66357978  0.03613478  0.85280503     0.09200
C1748       C  0.66003907  0.02342055  0.82452368    -0.12900
H1749       H  0.64574408  0.02705347  0.78171873     0.13200
H1750       H  0.65054081  0.10584794  0.84098214     0.13200
H1751       H  0.66426324  0.07762863  0.87945723     0.13200
H1752       H  0.66287380  0.00061338  0.81944137     0.13200
C1753       C  0.67467868  0.07559762  0.68069116    -0.12900
C1754       C  0.63976475  0.06659638  0.68538587     0.09200
C1755       C  0.61499974  0.04225609  0.66712194    -0.12900
C1756       C  0.62480225  0.02648627  0.64511536    -0.12900
C1757       C  0.65945869  0.03410269  0.64132279     0.09200
C1758       C  0.68445201  0.05935151  0.65884751    -0.12900
H1759       H  0.69422156  0.09427359  0.69449360     0.13200
H1760       H  0.58794705  0.03521873  0.66997906     0.13200
H1761       H  0.60519524  0.00756434  0.63148667     0.13200
H1762       H  0.71132812  0.06560630  0.65622467     0.13200
C1763       C  0.54027173  0.14933395  0.69764315    -0.12900
C1764       C  0.56860235  0.14343264  0.69166766     0.09200
C1765       C  0.58214408  0.14794695  0.66375165    -0.12900
C1766       C  0.56625713  0.15618298  0.64178508    -0.12900
C1767       C  0.53690367  0.16069780  0.64743848     0.09200
C1768       C  0.52516862  0.15880584  0.67590078    -0.12900
H1769       H  0.52960861  0.14623692  0.71908924     0.13200
H1770       H  0.60398614  0.14344060  0.65870332     0.13200
H1771       H  0.57597006  0.15748878  0.62015129     0.13200
H1772       H  0.00602252  0.16558038  0.67849264     0.13200
C1773       C  0.92115932  0.06895138  0.83939665    -0.12900
C1774       C  0.93073518  0.07796795  0.81086143     0.09200
C1775       C  0.95461075  0.11199487  0.80439903    -0.12900
C1776       C  0.96935112  0.13657724  0.82626522    -0.12900
C1777       C  0.96104472  0.12733915  0.85501221     0.09200
C1778       C  0.93620817  0.09344749  0.86133208    -0.12900
H1779       H  0.90287645  0.04268753  0.84472580     0.13200
H1780       H  0.96225835  0.11936331  0.78247536     0.13200
H1781       H  0.48815746  0.16181056  0.82166458     0.13200
H1782       H  0.92941656  0.08563374  0.88326834     0.13200
C1783       C  0.85009395  0.44355422  0.84122830    -0.12900
C1784       C  0.84950988  0.43322719  0.81269971     0.09200
C1785       C  0.84045253  0.39882278  0.80575619    -0.12900
C1786       C  0.83334392  0.37505249  0.82729398    -0.12900
C1787       C  0.83637011  0.38579134  0.85598232     0.09200
C1788       C  0.84354591  0.41988451  0.86284961    -0.12900
H1789       H  0.85762819  0.47027587  0.84674191     0.13200
H1790       H  0.84035470  0.39076622  0.78371644     0.13200
H1791       H  0.82722864  0.34870706  0.82161980     0.13200
H1792       H  0.84593159  0.42860422  0.88486941     0.13200
C1793       C  0.93630331  0.11493681  0.65610238    -0.12900
C1794       C  0.96329706  0.11405713  0.64000585     0.09200
C1795       C  0.97404391  0.08935118  0.64581179    -0.12900
C1796       C  0.95992368  0.06759528  0.66886441    -0.12900
C1797       C  0.93398963  0.06939896  0.68588592     0.09200
C1798       C  0.92155600  0.09254429  0.67889563    -0.12900
H1799       H  0.92764186  0.13379651  0.65170652     0.13200
H1800       H  0.99444542  0.08797669  0.63321353     0.13200
H1801       H  0.96941170  0.04942615  0.67343057     0.13200
H1802       H  0.90127832  0.09405758  0.69155600     0.13200
C1803       C  0.84979535  0.43396846  0.66411921    -0.12900
C1804       C  0.85325307  0.42590487  0.69217820     0.09200
C1805       C  0.84790155  0.39260578  0.69831652    -0.12900
C1806       C  0.84018438  0.36790590  0.67649214    -0.12900
C1807       C  0.83927139  0.37662852  0.64800648     0.09200
C1808       C  0.84308113  0.40956598  0.64212553    -0.12900
H1809       H  0.85418680  0.45971003  0.65902463     0.13200
H1810       H  0.85045816  0.38599494  0.71989754     0.13200
H1811       H  0.83657609  0.34246015  0.68164737     0.13200
H1812       H  0.84250102  0.41692806  0.62036978     0.13200
C1813       C  0.94641700  0.18526365  0.54613665    -0.16000
C1814       C  0.96012646  0.16362941  0.54822867    -0.31200
H1815       H  0.95735271  0.20909730  0.55865345     0.13000
H1816       H  0.94842143  0.13920991  0.53655852     0.13600
C1817       C  0.82032707  0.07880269  0.44492319    -0.16000
C1818       C  0.81742018  0.04686310  0.44679275    -0.31200
H1819       H  0.82039314  0.08931526  0.42420533     0.13000
H1820       H  0.81403334  0.03539914  0.46765757     0.13600
C1821       C  0.73006012  0.03472732  0.55624486    -0.16000
C1822       C  0.73476684  0.06504843  0.54576762    -0.31200
H1823       H  0.74897965  0.02575227  0.55156372     0.13000
H1824       H  0.71447686  0.07253884  0.54874606     0.13600
C1825       C  0.96381300  0.28809500  0.44846819    -0.16000
C1826       C  0.93380412  0.28786952  0.45583872    -0.31200
H1827       H  0.97026924  0.26873182  0.45629093     0.13000
H1828       H  0.92896580  0.30826307  0.44771772     0.13600
C1829       C  0.71730001  0.18501263  0.43922243    -0.16000
C1830       C  0.72617167  0.16071653  0.44688635    -0.31200
H1831       H  0.73154278  0.21122361  0.44747428     0.13000
H1832       H  0.71118939  0.13418075  0.43956274     0.13600
C1833       C  0.84322352  0.26072246  0.55404706    -0.16000
C1834       C  0.82950811  0.28279901  0.55418334    -0.31200
H1835       H  0.85543066  0.25766046  0.57276005     0.13000
H1836       H  0.81734301  0.28465626  0.53492811     0.13600
C1837       C  0.71325693  0.03782901  0.94749355    -0.16000
C1838       C  0.71358612  0.06802972  0.95446487    -0.31200
H1839       H  0.73239879  0.03133437  0.95571024     0.13000
H1840       H  0.69349141  0.07296141  0.94590520     0.13600
C1841       C  0.71539896  0.17018408  0.05310390    -0.16000
C1842       C  0.73929686  0.15876392  0.05326052    -0.31200
H1843       H  0.71186606  0.18066687  0.03348031     0.13000
H1844       H  0.74398913  0.14859614  0.07253564     0.13600
C1845       C  0.92317421  0.17998692  0.94427561    -0.16000
C1846       C  0.95621806  0.18610086  0.94668873    -0.31200
H1847       H  0.91226794  0.17771235  0.92334998     0.13000
H1848       H  0.96770560  0.19174501  0.96765318     0.13600
C1849       C  0.83350488  0.03924635  0.04790676    -0.16000
C1850       C  0.81390170  0.05530952  0.04768172    -0.31200
H1851       H  0.85557897  0.04754506  0.03344667     0.13000
H1852       H  0.79230859  0.04731040  0.06266003     0.13600
C1853       C  0.93799065  0.26438559  0.04483450    -0.16000
C1854       C  0.96775814  0.26831851  0.05579422    -0.31200
H1855       H  0.93067646  0.28476738  0.04834860     0.13000
H1856       H  0.97678452  0.24943923  0.05104596     0.13600
C1857       C  0.84201156  0.27611112  0.94840922    -0.16000
C1858       C  0.81788654  0.28522056  0.94097158    -0.31200
H1859       H  0.86870391  0.29159910  0.94180361     0.13000
H1860       H  0.79150851  0.27018668  0.94858023     0.13600
O1861       O  0.85543693  0.60691973  0.02231576    -0.80500
O1862       O  0.85851540  0.73755396  0.96846692    -0.65200
O1863       O  0.84529523  0.66613536  0.01970720    -1.11800
C1864       C  0.74529559  0.60049590  0.96493452     1.06400
O1865       O  0.80406481  0.72664812  0.97228503    -0.78400
O1866       O  0.75912441  0.67440665  0.00441054    -0.66000
Ni1867     Ni  0.88269244  0.65676905  0.02841472     1.34900
C1868       C  0.75928111  0.65737163  0.02578171     0.85100
O1869       O  0.89103127  0.73613035  0.01535666    -0.78900
O1870       O  0.91272699  0.70519236  0.03682274    -0.89200
C1871       C  0.83487516  0.74570615  0.96403302     0.84700
O1872       O  0.90324197  0.66216366  0.99109812    -0.67400
O1873       O  0.74689770  0.62960103  0.95963683    -0.86700
C1874       C  0.90292042  0.67931658  0.96975843     0.85500
C1875       C  0.91298040  0.73375438  0.03114856     1.07100
H1876       H  0.82220337  0.66214263  0.95654337     0.38900
O1877       O  0.81451125  0.66754130  0.97459713    -1.09300
O1878       O  0.77589893  0.64005225  0.02610727    -0.66000
Ni1879     Ni  0.80623087  0.63124319  0.00032530     1.26300
O1880       O  0.88438599  0.69459636  0.96876863    -0.66200
O1881       O  0.76735784  0.59692329  0.97978123    -0.78500
C1882       C  0.82445725  0.58827256  0.03110211     0.84900
O1883       O  0.80104753  0.59668786  0.02654567    -0.65700
Ni1884     Ni  0.77733010  0.67748178  0.96671193     1.27400
Ni1885     Ni  0.85322227  0.70234510  0.99425413     1.26100
H1886       H  0.83760242  0.67162402  0.03771447     0.39500
O1887       O  0.77726875  0.69870777  0.46872593    -0.80500
O1888       O  0.90570616  0.69954305  0.52746317    -0.65200
O1889       O  0.83533907  0.68708914  0.47522976    -1.11800
C1890       C  0.76739340  0.58946647  0.53277771     1.06400
O1891       O  0.89392695  0.64458937  0.52417838    -0.78400
O1892       O  0.83841103  0.59750249  0.49338846    -0.66000
Ni1893     Ni  0.82674162  0.72524398  0.46739448     1.34900
C1894       C  0.82177853  0.59810080  0.47183295     0.85100
O1895       O  0.90644348  0.73259486  0.48016457    -0.78900
O1896       O  0.87504023  0.75657336  0.46396565    -0.89200
C1897       C  0.91366270  0.67575519  0.53194119     0.84700
O1898       O  0.82563480  0.73942421  0.50579020    -0.67400
O1899       O  0.79568952  0.58955550  0.53885714    -0.86700
C1900       C  0.84430545  0.74112183  0.52653000     0.85500
C1901       C  0.90371617  0.75665805  0.46766328     1.07100
H1902       H  0.83057560  0.66493521  0.53880932     0.38900
O1903       O  0.83581086  0.65663531  0.52099820    -1.09300
O1904       O  0.80718836  0.61718155  0.47036879    -0.66000
Ni1905     Ni  0.79993740  0.64895657  0.49528860     1.26300
O1906       O  0.86359568  0.72652403  0.52624925    -0.66200
O1907       O  0.76551090  0.61148832  0.51664067    -0.78500
C1908       C  0.75752503  0.66714722  0.46297234     0.84900
O1909       O  0.76512316  0.64355233  0.46917794    -0.65700
Ni1910     Ni  0.84411476  0.61866785  0.53039637     1.27400
Ni1911     Ni  0.87135294  0.69478447  0.50115895     1.26100
H1912       H  0.84046193  0.67908955  0.45723204     0.39500
O1913       O  0.88701959  0.53762025  0.72023067    -0.74000
O1914       O  0.85090450  0.97208543  0.77896344    -0.74000
O1915       O  0.88498475  0.54151747  0.77831096    -0.74100
O1916       O  0.85311609  0.96951130  0.72100860    -0.74100
O1917       O  0.90158391  0.96482538  0.72320670    -0.74100
O1918       O  0.93346870  0.53671410  0.77893890    -0.74100
O1919       O  0.90002371  0.96843052  0.78042864    -0.74000
O1920       O  0.93415889  0.53049955  0.72124930    -0.74100
Ni1921     Ni  0.86496173  0.50518029  0.75010199     1.25400
Ni1922     Ni  0.91627603  0.49896705  0.75189159     1.25400
C1923       C  0.91689795  0.54400441  0.71036063     0.88200
C1924       C  0.86921722  0.95936549  0.78920257     0.88100
C1925       C  0.91522867  0.55100508  0.78788958     0.88100
C1926       C  0.87176064  0.95535081  0.71281123     0.88300
O1927       O  0.59781789  0.56244373  0.71911285    -0.74000
O1928       O  0.56419600  0.59661107  0.78128084    -0.74000
O1929       O  0.56246677  0.59887234  0.72361958    -0.74100
O1930       O  0.59991833  0.56024011  0.77666050    -0.74100
O1931       O  0.64811922  0.61040790  0.77871023    -0.74100
O1932       O  0.61287279  0.64684566  0.72185879    -0.74100
O1933       O  0.61218743  0.64694482  0.78009808    -0.74000
O1934       O  0.64838497  0.61015681  0.72049670    -0.74100
Ni1935     Ni  0.57936707  0.57783126  0.75019753     1.25400
Ni1936     Ni  0.63220714  0.63039190  0.75031747     1.25400
C1937       C  0.62851293  0.58052843  0.70947656     0.88200
C1938       C  0.58235059  0.62734849  0.79090252     0.88100
C1939       C  0.58188728  0.62878396  0.71340838     0.88100
C1940       C  0.62990993  0.57922477  0.78682178     0.88300
O1941       O  0.53894524  0.93882915  0.77812826    -0.74000
O1942       O  0.97602509  0.90635548  0.71821780    -0.74000
O1943       O  0.96977753  0.90649723  0.77589159    -0.74100
O1944       O  0.54456381  0.93742697  0.72061877    -0.74100
O1945       O  0.54200984  0.88530704  0.72124815    -0.74100
O1946       O  0.96724388  0.85449510  0.77751082    -0.74100
O1947       O  0.97208575  0.85374796  0.71947408    -0.74000
O1948       O  0.53830882  0.88763263  0.77957945    -0.74100
Ni1949     Ni  0.50742823  0.92469918  0.74771322     1.25400
Ni1950     Ni  0.50530026  0.86922846  0.74941492     1.25400
C1951       C  0.54845710  0.91842351  0.78935825     0.88200
C1952       C  0.96403440  0.87547540  0.70843162     0.88100
C1953       C  0.95684009  0.87612020  0.78623397     0.88100
C1954       C  0.55499174  0.91601209  0.71155705     0.88300
C1955       C  0.98097848  0.66526696  0.57415991     0.02700
C1956       C  0.52075079  0.69382287  0.57769736     0.02700
C1957       C  0.53745058  0.68978832  0.60166161    -0.17900
C1958       C  0.51938401  0.66644898  0.62327876     0.02700
C1959       C  0.98164934  0.63972864  0.61975883     0.02700
C1960       C  0.96403859  0.64175707  0.59600573    -0.17900
H1961       H  0.93677624  0.62401199  0.59413526     0.04700
H1962       H  0.56511450  0.70505811  0.60362905     0.04700
C1963       C  0.70233934  0.51335456  0.57722175     0.02700
C1964       C  0.68334853  0.97768245  0.57548455     0.02700
C1965       C  0.65984696  0.95996826  0.59770877    -0.17900
C1966       C  0.65312928  0.97773086  0.62029146     0.02700
C1967       C  0.67100964  0.51413790  0.62096951     0.02700
C1968       C  0.69532145  0.53143253  0.59951383    -0.17900
H1969       H  0.70873623  0.55940346  0.60014974     0.04700
H1970       H  0.64606866  0.93203162  0.59731684     0.04700
C1971       C  0.80781380  0.83430439  0.92266034     0.02700
C1972       C  0.82582769  0.81440926  0.92071219     0.02700
C1973       C  0.84875425  0.81926062  0.89755883    -0.17900
C1974       C  0.85437331  0.84344932  0.87651435     0.02700
C1975       C  0.83519504  0.86196531  0.87774187     0.02700
C1976       C  0.81307853  0.85795864  0.90096153    -0.17900
H1977       H  0.80048928  0.87409725  0.90191019     0.04700
H1978       H  0.86248402  0.80414630  0.89574551     0.04700
C1979       C  0.81498960  0.82603925  0.57790727     0.02700
C1980       C  0.83603854  0.80931502  0.57600965     0.02700
C1981       C  0.86129219  0.81712035  0.59681318    -0.17900
C1982       C  0.86502148  0.83977212  0.61965971     0.02700
C1983       C  0.84265474  0.85485044  0.62242634     0.02700
C1984       C  0.81812604  0.84783908  0.60143743    -0.17900
H1985       H  0.80068474  0.85895818  0.60391288     0.04700
H1986       H  0.87941585  0.80682832  0.59484654     0.04700
C1987       C  0.66843174  0.98035649  0.92637670     0.02700
C1988       C  0.69107074  0.51702667  0.92367989     0.02700
C1989       C  0.68934320  0.53303702  0.89840685    -0.17900
C1990       C  0.66573540  0.51482912  0.87698158     0.02700
C1991       C  0.64377253  0.98010214  0.88019365     0.02700
C1992       C  0.64569695  0.96282896  0.90424090    -0.17900
H1993       H  0.62821966  0.93547996  0.90625555     0.04700
H1994       H  0.70610683  0.56038356  0.89559564     0.04700
C1995       C  0.97787550  0.68421181  0.92121933     0.02700
C1996       C  0.51402145  0.70271363  0.92202596     0.02700
C1997       C  0.53238878  0.69541421  0.90007243    -0.17900
C1998       C  0.51535022  0.67092724  0.87851351     0.02700
C1999       C  0.97964842  0.65359178  0.87693003     0.02700
C2000       C  0.96109309  0.66019099  0.89902446    -0.17900
H2001       H  0.93325347  0.64570837  0.89921654     0.04700
H2002       H  0.56031316  0.70880706  0.89975337     0.04700
O2003       O  0.61010936  0.85732029  0.47453387    -0.80500
O2004       O  0.74032736  0.86008564  0.52878675    -0.65200
O2005       O  0.66891761  0.84643072  0.47749025    -1.11800
C2006       C  0.60327224  0.74766605  0.53421298     1.06400
O2007       O  0.72903404  0.80548510  0.52481040    -0.78400
O2008       O  0.67639106  0.76009447  0.49380720    -0.66000
Ni2009     Ni  0.65998494  0.88398493  0.46808521     1.34900
C2010       C  0.65918920  0.76000166  0.47253164     0.85100
O2011       O  0.73911395  0.89237970  0.48150465    -0.78900
O2012       O  0.70847125  0.91368553  0.45915704    -0.89200
C2013       C  0.74806942  0.83615728  0.53339926     0.84700
O2014       O  0.66555556  0.90507930  0.50517306    -0.67400
O2015       O  0.63230051  0.74890997  0.53904050    -0.86700
C2016       C  0.68210193  0.90450655  0.52681506     0.85500
C2017       C  0.73696848  0.91400446  0.46508677     1.07100
H2018       H  0.66535564  0.82424711  0.54101768     0.38900
O2019       O  0.67049928  0.81626427  0.52296900    -1.09300
O2020       O  0.64201355  0.77676038  0.47209973    -0.66000
Ni2021     Ni  0.63404021  0.80788319  0.49764940     1.26300
O2022       O  0.69733607  0.88596467  0.52811986    -0.66200
O2023       O  0.59976233  0.76962918  0.51909777    -0.78500
C2024       C  0.59050678  0.82575368  0.46758517     0.84900
O2025       O  0.59911489  0.80244355  0.47196920    -0.65700
Ni2026     Ni  0.68011648  0.77898539  0.53122910     1.27400
Ni2027     Ni  0.70522461  0.85468791  0.50291444     1.26100
H2028       H  0.67415870  0.83823243  0.45965338     0.39500
O2029       O  0.69690015  0.77444305  0.02551865    -0.80500
O2030       O  0.70107881  0.90522608  0.97485020    -0.65200
O2031       O  0.68705063  0.83351779  0.02588840    -1.11800
C2032       C  0.58845273  0.76807777  0.96855218     1.06400
O2033       O  0.64654654  0.89476050  0.97905905    -0.78400
O2034       O  0.59804386  0.83911072  0.00945366    -0.66000
Ni2035     Ni  0.72378856  0.82291348  0.03356916     1.34900
C2036       C  0.59847010  0.82219619  0.03093328     0.85100
O2037       O  0.73543416  0.90394616  0.02123773    -0.78900
O2038       O  0.75389176  0.87023343  0.04260543    -0.89200
C2039       C  0.67759111  0.91361617  0.97043478     0.84700
O2040       O  0.74359705  0.82804647  0.99634020    -0.67400
O2041       O  0.58901911  0.79681945  0.96295437    -0.86700
C2042       C  0.74233677  0.84411423  0.97473213     0.85500
C2043       C  0.75652282  0.89967683  0.03695924     1.07100
H2044       H  0.66381570  0.83011829  0.96309266     0.38900
O2045       O  0.65624361  0.83563239  0.98111749    -1.09300
O2046       O  0.61717164  0.80707768  0.03206588    -0.66000
Ni2047     Ni  0.64798301  0.79908990  0.00620582     1.26300
O2048       O  0.72513059  0.86080733  0.97431349    -0.66200
O2049       O  0.60983887  0.76549205  0.98495469    -0.78500
C2050       C  0.66668744  0.75560735  0.03505309     0.84900
O2051       O  0.64281109  0.76367972  0.03160436    -0.65700
Ni2052     Ni  0.61908237  0.84512839  0.97225129     1.27400
Ni2053     Ni  0.69574470  0.87017965  0.00060867     1.26100
H2054       H  0.67950611  0.83887346  0.04401756     0.39500
O2055       O  0.96359110  0.62361755  0.22028674    -0.74000
O2056       O  0.53084008  0.64927892  0.28080468    -0.74000
O2057       O  0.53426493  0.65256282  0.22283178    -0.74100
O2058       O  0.96087291  0.62219498  0.27854744    -0.74100
O2059       O  0.95683948  0.56944272  0.27579723    -0.74100
O2060       O  0.53386925  0.60136174  0.22203183    -0.74100
O2061       O  0.52702021  0.59661953  0.27949946    -0.74000
O2062       O  0.96214827  0.57189427  0.21841009    -0.74100
Ni2063     Ni  0.99702830  0.63947532  0.24990253     1.25400
Ni2064     Ni  0.99396582  0.58344659  0.24859180     1.25400
C2065       C  0.95233917  0.59321385  0.20953131     0.88200
C2066       C  0.53893833  0.62696579  0.29048221     0.88100
C2067       C  0.54606472  0.63237533  0.21326985     0.88100
C2068       C  0.94734336  0.59080244  0.28672725     0.88300
O2069       O  0.91239430  0.93986889  0.28009480    -0.74000
O2070       O  0.94079995  0.89682172  0.22042801    -0.74000
O2071       O  0.91233084  0.93996867  0.22179977    -0.74100
O2072       O  0.94118924  0.89691657  0.27771586    -0.74100
O2073       O  0.88858874  0.85182860  0.27884729    -0.74100
O2074       O  0.85985272  0.89487000  0.22194327    -0.74100
O2075       O  0.88832337  0.85142670  0.22062748    -0.74000
O2076       O  0.85985620  0.89483637  0.28002789    -0.74100
Ni2077     Ni  0.92845688  0.92005143  0.25000632     1.25400
Ni2078     Ni  0.87225334  0.87162012  0.25036111     1.25400
C2079       C  0.88154774  0.92419532  0.29023979     0.88200
C2080       C  0.91929366  0.86703718  0.21090199     0.88100
C2081       C  0.88161390  0.92437061  0.21216352     0.88100
C2082       C  0.91979362  0.86741056  0.28746898     0.88300
C2083       C  0.82077182  0.52492648  0.42374123     0.02700
C2084       C  0.80437430  0.99045421  0.42122353     0.02700
C2085       C  0.81422942  0.97320825  0.40003652    -0.17900
C2086       C  0.83853199  0.99130771  0.37862516     0.02700
C2087       C  0.85240799  0.52632341  0.37943465     0.02700
C2088       C  0.84478996  0.54331533  0.40203926    -0.17900
H2089       H  0.85798369  0.57126293  0.40267839     0.04700
H2090       H  0.80257774  0.94529427  0.39989239     0.04700
O2091       O  0.60719343  0.96116217  0.27932213    -0.74000
O2092       O  0.63892652  0.52629324  0.21846982    -0.74000
O2093       O  0.64133891  0.53069134  0.27647226    -0.74100
O2094       O  0.60467112  0.95665161  0.22146604    -0.74100
O2095       O  0.55582952  0.96076441  0.22359876    -0.74100
O2096       O  0.59301328  0.53589797  0.27699646    -0.74100
O2097       O  0.58989943  0.53011944  0.21946435    -0.74000
O2098       O  0.55972108  0.96776672  0.28147341    -0.74100
Ni2099     Ni  0.62644665  0.99329876  0.24883777     1.25400
Ni2100     Ni  0.57462043  0.99869268  0.25035119     1.25400
C2101       C  0.57804363  0.95461723  0.29092732     0.88200
C2102       C  0.61958636  0.53805255  0.20848271     0.88100
C2103       C  0.62348244  0.54512800  0.28590185     0.88100
C2104       C  0.57400468  0.94714324  0.21295964     0.88300
C2105       C  0.83351511  0.52014882  0.07318806     0.02700
C2106       C  0.81518954  0.98427117  0.07670460     0.02700
C2107       C  0.82052716  0.96949536  0.10140751    -0.17900
C2108       C  0.84423502  0.98958802  0.12222599     0.02700
C2109       C  0.86019068  0.52498230  0.11934073     0.02700
C2110       C  0.85506050  0.54014918  0.09524645    -0.17900
H2111       H  0.86821995  0.56804623  0.09356227     0.04700
H2112       H  0.80665028  0.94186760  0.10437367     0.04700
C2113       C  0.68689222  0.67385459  0.42099370     0.02700
C2114       C  0.66599823  0.69077504  0.42318760     0.02700
C2115       C  0.64037042  0.68293180  0.40274732    -0.17900
C2116       C  0.63618016  0.66011807  0.37997156     0.02700
C2117       C  0.65819570  0.64475409  0.37695961     0.02700
C2118       C  0.68291738  0.65148828  0.39767069    -0.17900
H2119       H  0.70002733  0.64001582  0.39492306     0.04700
H2120       H  0.62249989  0.69352463  0.40482352     0.04700
C2121       C  0.69282525  0.66711502  0.07681822     0.02700
C2122       C  0.67719239  0.68910069  0.07937010     0.02700
C2123       C  0.65543328  0.68607762  0.10290471    -0.17900
C2124       C  0.64718535  0.66060266  0.12325937     0.02700
C2125       C  0.66118407  0.63736693  0.11990248     0.02700
C2126       C  0.68406799  0.64112653  0.09718339    -0.17900
H2127       H  0.69359001  0.62239692  0.09486499     0.04700
H2128       H  0.64503678  0.70411428  0.10569593     0.04700
C2129       C  0.98553380  0.81165415  0.42536490     0.02700
C2130       C  0.52057711  0.83303216  0.42744009     0.02700
C2131       C  0.53720947  0.85680986  0.40568101    -0.20700
C2132       C  0.51935277  0.85842418  0.38197890     0.02700
C2133       C  0.98433746  0.83592339  0.37893106     0.02700
C2134       C  0.96820807  0.81162461  0.40037114    -0.17900
H2135       H  0.94140784  0.79277077  0.39783911     0.04700
H2136       H  0.56428474  0.87516122  0.40767244     0.04700
C2137       C  0.52197097  0.81574863  0.07841407     0.02700
C2138       C  0.98754149  0.79836902  0.07655566     0.02700
C2139       C  0.96834456  0.80308613  0.09913957    -0.17900
C2140       C  0.98424835  0.82708898  0.12104983     0.02700
C2141       C  0.51789856  0.84520803  0.12251493     0.02700
C2142       C  0.53763254  0.83996922  0.10070551    -0.17900
H2143       H  0.56524975  0.85642803  0.10029731     0.04700
H2144       H  0.94060585  0.78725906  0.10013762     0.04700
C2145       C  0.56568143  0.88745101  0.34532393    -0.12900
C2146       C  0.53760892  0.88615539  0.36125600     0.09200
C2147       C  0.52502736  0.90949918  0.35563926    -0.12900
C2148       C  0.53840200  0.93188769  0.33283473    -0.12900
C2149       C  0.56528774  0.93199927  0.31579608     0.09200
C2150       C  0.57953406  0.91034102  0.32273440    -0.12900
H2151       H  0.57581744  0.86972818  0.34958234     0.13200
H2152       H  0.00296522  0.91071926  0.36748385     0.13200
H2153       H  0.52736721  0.94879010  0.32833000     0.13200
H2154       H  0.60053511  0.91024827  0.31012718     0.13200
C2155       C  0.53535053  0.92142235  0.17143885    -0.12900
C2156       C  0.56012239  0.92123010  0.18965860     0.09200
C2157       C  0.57306601  0.89763521  0.18421508    -0.12900
C2158       C  0.56043174  0.87374105  0.16161415    -0.12900
C2159       C  0.53505657  0.87345251  0.14386640     0.09200
C2160       C  0.52353556  0.89829458  0.14840606    -0.12900
H2161       H  0.52546803  0.93979563  0.17474671     0.13200
H2162       H  0.59247193  0.89723863  0.19777840     0.13200
H2163       H  0.56964398  0.85481607  0.15851694     0.13200
H2164       H  0.00650071  0.90058969  0.13377173     0.13200
C2165       C  0.64471608  0.60591950  0.30237597    -0.12900
C2166       C  0.63760055  0.57199650  0.30808002     0.09200
C2167       C  0.64140387  0.56315026  0.33577021    -0.12900
C2168       C  0.64992770  0.58744853  0.35801069    -0.12900
C2169       C  0.65519472  0.62100053  0.35270519     0.09200
C2170       C  0.65424804  0.63049901  0.32444895    -0.12900
H2171       H  0.64211797  0.61312463  0.28101249     0.13200
H2172       H  0.63594596  0.53696474  0.34042292     0.13200
H2173       H  0.65063774  0.57956226  0.37956283     0.13200
H2174       H  0.65905877  0.65645790  0.31974042     0.13200
C2175       C  0.66607161  0.58185323  0.17785272    -0.12900
C2176       C  0.63094867  0.56068033  0.18369063     0.09200
C2177       C  0.60618183  0.56183900  0.16601072    -0.12900
C2178       C  0.61627333  0.58508056  0.14375668    -0.12900
C2179       C  0.65120359  0.60825478  0.13941989     0.09200
C2180       C  0.67616101  0.60570528  0.15586495    -0.12900
H2181       H  0.68555923  0.58110355  0.19109270     0.13200
H2182       H  0.57893833  0.54520518  0.16973458     0.13200
H2183       H  0.59674057  0.58632936  0.13089162     0.13200
H2184       H  0.70325088  0.62333957  0.15263404     0.13200
C2185       C  0.91628930  0.84472982  0.33644771    -0.12900
C2186       C  0.93181905  0.85196358  0.30924692     0.09200
C2187       C  0.96179695  0.84862953  0.30409349    -0.12900
C2188       C  0.97702655  0.83992302  0.32615149    -0.12900
C2189       C  0.96375776  0.83649375  0.35418302     0.09200
C2190       C  0.93231712  0.83737825  0.35883201    -0.12900
H2191       H  0.89317318  0.84723453  0.34084916     0.13200
H2192       H  0.97404952  0.85388515  0.28317812     0.13200
H2193       H  0.00051031  0.83816338  0.32168706     0.13200
H2194       H  0.92126879  0.83452397  0.38011743     0.13200
C2195       C  0.92174855  0.85109183  0.16003926    -0.12900
C2196       C  0.93081973  0.85082317  0.18840266     0.09200
C2197       C  0.95412830  0.83851792  0.19478468    -0.12900
C2198       C  0.96952972  0.82807410  0.17286931    -0.12900
C2199       C  0.96251271  0.83076949  0.14427840     0.09200
C2200       C  0.93752197  0.84108353  0.13803831    -0.12900
H2201       H  0.90396732  0.86083320  0.15485858     0.13200
H2202       H  0.96134946  0.83823618  0.21663712     0.13200
H2203       H  0.98849149  0.81987577  0.17808547     0.13200
H2204       H  0.93186261  0.84344295  0.11612181     0.13200
C2205       C  0.83565518  0.92731385  0.32132578    -0.12900
C2206       C  0.87075959  0.94000109  0.31412556     0.09200
C2207       C  0.89534862  0.96778365  0.33003381    -0.12900
C2208       C  0.88495763  0.98319865  0.35204655    -0.12900
C2209       C  0.84974478  0.97189360  0.35800168     0.09200
C2210       C  0.82525245  0.94320818  0.34293869    -0.12900
H2211       H  0.81610335  0.90568984  0.30968749     0.13200
H2212       H  0.92261186  0.97773292  0.32538362     0.13200
H2213       H  0.90295241  0.50259026  0.36382357     0.13200
H2214       H  0.79798864  0.93386531  0.34718418     0.13200
C2215       C  0.88809378  0.98135048  0.15014290    -0.12900
C2216       C  0.85336617  0.97210939  0.14509313     0.09200
C2217       C  0.82777589  0.94613850  0.16179926    -0.12900
C2218       C  0.83679059  0.93041215  0.18347330    -0.12900
C2219       C  0.87160652  0.94055381  0.18909425     0.09200
C2220       C  0.89710616  0.96614360  0.17205583    -0.12900
H2221       H  0.90837978  0.00053771  0.13712213     0.13200
H2222       H  0.80081600  0.93835261  0.15833354     0.13200
H2223       H  0.81652636  0.91067025  0.19611435     0.13200
H2224       H  0.92413629  0.97415246  0.17541995     0.13200
C2225       C  0.93110243  0.59014678  0.33798073    -0.12900
C2226       C  0.92135545  0.57889238  0.30984265     0.09200
C2227       C  0.88789568  0.55291726  0.30452725    -0.12900
C2228       C  0.86471526  0.53763930  0.32713278    -0.12900
C2229       C  0.87513127  0.54695634  0.35551184     0.09200
C2230       C  0.90818620  0.57418634  0.36071533    -0.12900
H2231       H  0.95705968  0.60989233  0.34242834     0.13200
H2232       H  0.88004752  0.54382315  0.28294127     0.13200
H2233       H  0.84061236  0.01448409  0.31999807     0.13200
H2234       H  0.91685127  0.58186705  0.38235421     0.13200
C2235       C  0.91670236  0.57164713  0.13605024    -0.12900
C2236       C  0.88240208  0.54759628  0.14216950     0.09200
C2237       C  0.87031983  0.54282779  0.17053599    -0.12900
C2238       C  0.89296813  0.55957334  0.19265916    -0.12900
C2239       C  0.92762498  0.58191513  0.18657115     0.09200
C2240       C  0.93929827  0.58869428  0.15823771    -0.12900
H2241       H  0.92645553  0.57555817  0.11428690     0.13200
H2242       H  0.84383769  0.52462874  0.17557947     0.13200
H2243       H  0.88387144  0.55388736  0.21453260     0.13200
H2244       H  0.96623280  0.60553995  0.15339690     0.13200
C2245       C  0.58535570  0.67051477  0.32094115    -0.12900
C2246       C  0.56196406  0.63597164  0.31488001     0.09200
C2247       C  0.56078843  0.60980227  0.33225585    -0.12900
C2248       C  0.58349161  0.61793844  0.35473774    -0.12900
C2249       C  0.60828861  0.65223750  0.35966623     0.09200
C2250       C  0.60851550  0.67859231  0.34316827    -0.12900
H2251       H  0.58657210  0.69109512  0.30787289     0.13200
H2252       H  0.54254220  0.58301548  0.32828930     0.13200
H2253       H  0.58279141  0.59735597  0.36751357     0.13200
H2254       H  0.62758969  0.70517821  0.34670634     0.13200
C2255       C  0.60607204  0.64773522  0.19735198    -0.12900
C2256       C  0.57352257  0.64439786  0.19129281     0.09200
C2257       C  0.56635565  0.64955879  0.16341146    -0.12900
C2258       C  0.59083334  0.65614182  0.14150251    -0.12900
C2259       C  0.62303194  0.65809202  0.14722571     0.09200
C2260       C  0.63090796  0.65529375  0.17561208    -0.12900
H2261       H  0.61201806  0.64387927  0.21880089     0.13200
H2262       H  0.54123081  0.64682382  0.15836343     0.13200
H2263       H  0.58407378  0.65822623  0.11986955     0.13200
H2264       H  0.65578681  0.65750185  0.18074513     0.13200
C2265       C  0.65920085  0.72417472  0.05066438    -0.16000
C2266       C  0.68421374  0.71662662  0.05857373    -0.31200
H2267       H  0.63277721  0.70827744  0.05782608     0.13000
H2268       H  0.71050543  0.73187523  0.05083786     0.13600
C2269       C  0.54358320  0.81454868  0.05360315    -0.16000
C2270       C  0.57644625  0.82015216  0.05609576    -0.31200
H2271       H  0.53232098  0.80946820  0.03256326     0.13000
H2272       H  0.58703717  0.82194103  0.07709289     0.13600
C2273       C  0.78974736  0.96106467  0.05523693    -0.16000
C2274       C  0.78610186  0.92907707  0.05040334    -0.31200
H2275       H  0.77250195  0.96909440  0.04548165     0.13000
H2276       H  0.80485193  0.92257187  0.05949027     0.13600
C2277       C  0.66918155  0.71458613  0.44770676    -0.16000
C2278       C  0.65841723  0.73894691  0.44710972    -0.31200
H2279       H  0.68014183  0.71149808  0.46722512     0.13000
H2280       H  0.64783608  0.74314544  0.42785791     0.13600
C2281       C  0.55739163  0.81538089  0.45307206    -0.16000
C2282       C  0.54208164  0.83563297  0.45209140    -0.31200
H2283       H  0.54735365  0.79190343  0.44009013     0.13000
H2284       H  0.55284015  0.85971987  0.46425128     0.13600
C2285       C  0.77460930  0.96966685  0.44068225    -0.16000
C2286       C  0.76941122  0.93913186  0.45101244    -0.31200
H2287       H  0.75576520  0.97877374  0.44523477     0.13000
H2288       H  0.78966862  0.93155810  0.44834614     0.13600
C2289       C  0.53369207  0.73157192  0.94258846    -0.16000
C2290       C  0.56349217  0.73599399  0.95385413    -0.31200
H2291       H  0.52458891  0.75044476  0.94707559     0.13000
H2292       H  0.57090637  0.71561682  0.95095256     0.13600
C2293       C  0.68696867  0.94538322  0.95401327    -0.16000
C2294       C  0.66594287  0.95967627  0.95166266    -0.31200
H2295       H  0.71032032  0.95506159  0.94091270     0.13000
H2296       H  0.64193353  0.94922463  0.96388835     0.13600
C2297       C  0.78776630  0.81935317  0.55682417    -0.16000
C2298       C  0.77951096  0.84409530  0.54927958    -0.31200
H2299       H  0.77309879  0.79320803  0.54854819     0.13000
H2300       H  0.79483509  0.87051475  0.55674735     0.13600
C2301       C  0.78555162  0.83217827  0.94812100    -0.16000
C2302       C  0.76183485  0.84380058  0.94864844    -0.31200
H2303       H  0.78955258  0.82161686  0.96751360     0.13000
H2304       H  0.75643066  0.85388282  0.92968187     0.13600
C2305       C  0.68332190  0.92579604  0.55215761    -0.16000
C2306       C  0.68621224  0.95773039  0.55018502    -0.31200
H2307       H  0.68291622  0.91530619  0.57296362     0.13000
H2308       H  0.68995604  0.96927729  0.52932233     0.13600
C2309       C  0.54291341  0.71798906  0.55501961    -0.16000
C2310       C  0.57337603  0.71889393  0.54801256    -0.31200
H2311       H  0.53602553  0.73676008  0.54654849     0.13000
H2312       H  0.57865716  0.69889875  0.55633144     0.13600
C2313       C  0.90653366  0.83232988  0.81462172    -0.12900
C2314       C  0.93070191  0.86682386  0.80942872     0.09200
C2315       C  0.93077854  0.89296281  0.82742046    -0.12900
C2316       C  0.90711789  0.88496014  0.84995987    -0.12900
C2317       C  0.88181871  0.85078136  0.85439731     0.09200
C2318       C  0.88206002  0.82438494  0.83683442    -0.12900
H2319       H  0.90613480  0.81167318  0.80117782     0.13200
H2320       H  0.94954014  0.91968622  0.82432467     0.13200
H2321       H  0.90805102  0.90567427  0.86363323     0.13200
H2322       H  0.86287149  0.79781980  0.83990117     0.13200
C2323       C  0.61700507  0.93357559  0.84314120    -0.12900
C2324       C  0.61647057  0.96064190  0.85949880     0.09200
C2325       C  0.59136215  0.97104277  0.85453419    -0.12900
C2326       C  0.56894904  0.95667011  0.83193924    -0.12900
C2327       C  0.57065617  0.93100076  0.81439321     0.09200
C2328       C  0.59404619  0.91867694  0.82069060    -0.12900
H2329       H  0.63616743  0.92515595  0.84693267     0.13200
H2330       H  0.59029129  0.99150804  0.86730108     0.13200
H2331       H  0.55059681  0.96607261  0.82788641     0.13200
H2332       H  0.59555370  0.89869946  0.80756512     0.13200
C2333       C  0.61555628  0.95103365  0.69474879    -0.12900
C2334       C  0.58145732  0.92701861  0.68883477     0.09200
C2335       C  0.57172232  0.91729849  0.66046887    -0.12900
C2336       C  0.59546147  0.93264501  0.63813246    -0.12900
C2337       C  0.62927892  0.95787370  0.64391264     0.09200
C2338       C  0.63943150  0.96597659  0.67247081    -0.12900
H2339       H  0.62337514  0.95901676  0.71653167     0.13200
H2340       H  0.54529549  0.89919045  0.65557057     0.13200
H2341       H  0.58698088  0.92610513  0.61633555     0.13200
H2342       H  0.66548518  0.98502815  0.67745775     0.13200
C2343       C  0.91859860  0.83074103  0.67745573    -0.12900
C2344       C  0.94087347  0.86551533  0.68392311     0.09200
C2345       C  0.94040896  0.89138471  0.66709702    -0.12900
C2346       C  0.91715997  0.88279920  0.64500840    -0.12900
C2347       C  0.89326286  0.84826066  0.63984797     0.09200
C2348       C  0.89481430  0.82216745  0.65556287    -0.12900
H2349       H  0.91866273  0.81033990  0.68997795     0.13200
H2350       H  0.95771396  0.91839407  0.67126653     0.13200
H2351       H  0.91674723  0.90322113  0.63273617     0.13200
H2352       H  0.87665555  0.79533448  0.65169357     0.13200
C2353       C  0.57784052  0.67489818  0.81913115    -0.12900
C2354       C  0.56817445  0.63967124  0.81489324     0.09200
C2355       C  0.54343008  0.61550714  0.83330561    -0.12900
C2356       C  0.52777023  0.62606704  0.85484870    -0.12900
C2357       C  0.53578535  0.66094408  0.85805321     0.09200
C2358       C  0.56162599  0.68545922  0.84052709    -0.12900
H2359       H  0.59689612  0.69404453  0.80525020     0.13200
H2360       H  0.53585566  0.58825391  0.83085173     0.13200
H2361       H  0.50839948  0.60679056  0.86845596     0.13200
H2362       H  0.56826318  0.71251679  0.84269342     0.13200
C2363       C  0.64811212  0.53620285  0.80287385    -0.12900
C2364       C  0.64317644  0.56517353  0.80877466     0.09200
C2365       C  0.64936074  0.57972227  0.83631878    -0.12900
C2366       C  0.65818186  0.56420018  0.85814784    -0.12900
C2367       C  0.66176315  0.53424431  0.85269021     0.09200
C2368       C  0.65832645  0.52150422  0.82443781    -0.12900
H2369       H  0.64379630  0.52481589  0.78164718     0.13200
H2370       H  0.64569538  0.60211703  0.84125143     0.13200
H2371       H  0.66066789  0.57473524  0.87959242     0.13200
H2372       H  0.66199572  0.49918136  0.81930551     0.13200
C2373       C  0.67559402  0.57611863  0.68082329    -0.12900
C2374       C  0.64049790  0.56660145  0.68518766     0.09200
C2375       C  0.61621510  0.54237247  0.66657623    -0.12900
C2376       C  0.62655634  0.52683654  0.64480027    -0.12900
C2377       C  0.66126854  0.53448988  0.64162140     0.09200
C2378       C  0.68591726  0.56002401  0.65921303    -0.12900
H2379       H  0.69480401  0.59489864  0.69479851     0.13200
H2380       H  0.58906785  0.53507196  0.66908661     0.13200
H2381       H  0.60725296  0.50781733  0.63101831     0.13200
H2382       H  0.71287475  0.56646393  0.65694393     0.13200
C2383       C  0.54262339  0.65152702  0.69736627    -0.12900
C2384       C  0.56856046  0.64212434  0.69102633     0.09200
C2385       C  0.58057951  0.64390582  0.66280365    -0.12900
C2386       C  0.56567704  0.65340935  0.64093951    -0.12900
C2387       C  0.53876611  0.66165933  0.64702225     0.09200
C2388       C  0.52834954  0.66191392  0.67563521    -0.12900
H2389       H  0.53315896  0.65042873  0.71906626     0.13200
H2390       H  0.60052499  0.63658374  0.65754947     0.13200
H2391       H  0.57411388  0.65285142  0.61912164     0.13200
H2392       H  0.00192490  0.66074891  0.68038948     0.13200
C2393       C  0.91766557  0.57089134  0.83840680    -0.12900
C2394       C  0.92918021  0.57827267  0.81003332     0.09200
C2395       C  0.95551219  0.61116825  0.80333693    -0.12900
C2396       C  0.97056789  0.63621519  0.82483909    -0.12900
C2397       C  0.96055463  0.62836866  0.85361195     0.09200
C2398       C  0.93335563  0.59563352  0.86005077    -0.12900
H2399       H  0.89740379  0.54553398  0.84393248     0.13200
H2400       H  0.96462822  0.61733722  0.78151705     0.13200
H2401       H  0.48945203  0.66452911  0.82017451     0.13200
H2402       H  0.92506041  0.58875077  0.88193617     0.13200
C2403       C  0.85633825  0.94459722  0.83996379    -0.12900
C2404       C  0.85501397  0.93385523  0.81148839     0.09200
C2405       C  0.84374166  0.89901411  0.80465044    -0.12900
C2406       C  0.83479402  0.87505373  0.82631888    -0.12900
C2407       C  0.83827021  0.88600887  0.85499342     0.09200
C2408       C  0.84800165  0.92073628  0.86169697    -0.12900
H2409       H  0.86543558  0.97162733  0.84534491     0.13200
H2410       H  0.84296217  0.89061897  0.78263640     0.13200
H2411       H  0.82696920  0.84828520  0.82078754     0.13200
H2412       H  0.85097036  0.92966377  0.88367693     0.13200
C2413       C  0.93505710  0.61316018  0.65644886    -0.12900
C2414       C  0.96245593  0.61263254  0.64074836     0.09200
C2415       C  0.97315731  0.58788858  0.64665952    -0.12900
C2416       C  0.95815899  0.56543744  0.66927738    -0.12900
C2417       C  0.93168502  0.56688284  0.68585870     0.09200
C2418       C  0.91967028  0.59033399  0.67883739    -0.12900
H2419       H  0.92653823  0.63213204  0.65207225     0.13200
H2420       H  0.99405129  0.58695029  0.63448130     0.13200
H2421       H  0.96747704  0.54715880  0.67394060     0.13200
H2422       H  0.89915921  0.59176766  0.69120322     0.13200
C2423       C  0.85433209  0.93566749  0.66291072    -0.12900
C2424       C  0.85928854  0.92809416  0.69071114     0.09200
C2425       C  0.85519649  0.89517779  0.69665430    -0.12900
C2426       C  0.84723251  0.87039986  0.67484579    -0.12900
C2427       C  0.84504447  0.87878209  0.64648606     0.09200
C2428       C  0.84754355  0.91129276  0.64089818    -0.12900
H2429       H  0.85754596  0.96104623  0.65798269     0.13200
H2430       H  0.85874847  0.88888714  0.71807884     0.13200
H2431       H  0.84438918  0.84520737  0.67989741     0.13200
H2432       H  0.84581477  0.91839975  0.61929465     0.13200
C2433       C  0.94608026  0.68486929  0.54732036    -0.16000
C2434       C  0.95960304  0.66309401  0.54943509    -0.31200
H2435       H  0.95698249  0.70869088  0.55985688     0.13000
H2436       H  0.94779339  0.63866084  0.53778528     0.13600
C2437       C  0.81972434  0.57625755  0.44674426    -0.16000
C2438       C  0.81705936  0.54444660  0.44893841    -0.31200
H2439       H  0.81974220  0.58642385  0.42587436     0.13000
H2440       H  0.81364557  0.53307914  0.46984708     0.13600
C2441       C  0.73074479  0.53358764  0.55664107    -0.16000
C2442       C  0.73507075  0.56391435  0.54648863    -0.31200
H2443       H  0.74971392  0.52476665  0.55162875     0.13000
H2444       H  0.71470534  0.57124482  0.54980703     0.13600
C2445       C  0.96452555  0.78767481  0.44836449    -0.16000
C2446       C  0.93394907  0.78638167  0.45534985    -0.31200
H2447       H  0.97148375  0.76860292  0.45603725     0.13000
H2448       H  0.92873645  0.80657857  0.44732543     0.13600
C2449       C  0.71524288  0.68155657  0.44115057    -0.16000
C2450       C  0.72496597  0.65772418  0.44825561    -0.31200
H2451       H  0.72966290  0.70793055  0.44899692     0.13000
H2452       H  0.70982647  0.63097941  0.44151066     0.13600
C2453       C  0.84445160  0.76168100  0.55205793    -0.16000
C2454       C  0.83345769  0.78584535  0.55140311    -0.31200
H2455       H  0.85507115  0.75755631  0.57131339     0.13000
H2456       H  0.82275803  0.78900619  0.53176256     0.13600
C2457       C  0.71442933  0.53937127  0.94649708    -0.16000
C2458       C  0.71616796  0.57052057  0.95182290    -0.31200
H2459       H  0.73232336  0.53213083  0.95614243     0.13000
H2460       H  0.69693362  0.57609294  0.94237163     0.13600
C2461       C  0.71575925  0.66941562  0.05179993    -0.16000
C2462       C  0.73880319  0.65696243  0.05154868    -0.31200
H2463       H  0.71327338  0.68140085  0.03264098     0.13000
H2464       H  0.74246551  0.64539026  0.07044356     0.13600
C2465       C  0.92456460  0.68128676  0.94442170    -0.16000
C2466       C  0.95722761  0.68622607  0.94641528    -0.31200
H2467       H  0.91374794  0.67995541  0.92360712     0.13000
H2468       H  0.96888632  0.69096076  0.96728608     0.13600
C2469       C  0.83293752  0.53913024  0.04764048    -0.16000
C2470       C  0.81529862  0.55730245  0.04849305    -0.31200
H2471       H  0.85305577  0.54481603  0.03156528     0.13000
H2472       H  0.79528447  0.55135760  0.06474630     0.13600
C2473       C  0.93834095  0.76589549  0.04507099    -0.16000
C2474       C  0.96856607  0.77039526  0.05533628    -0.31200
H2475       H  0.93067091  0.78600043  0.04877256     0.13000
H2476       H  0.97792480  0.75186892  0.05014906     0.13600
C2477       C  0.84339728  0.77781343  0.94876242    -0.16000
C2478       C  0.81901187  0.78654559  0.94129103    -0.31200
H2479       H  0.86996427  0.79329992  0.94181169     0.13000
H2480       H  0.79274193  0.77159299  0.94916927     0.13600
loop_ 
_geom_bond_atom_site_label_1 
_geom_bond_atom_site_label_2 
_geom_bond_distance 
_geom_bond_site_symmetry_2 
_ccdc_geom_bond_type 
O1           Ni7   1.953       .  S
O1           C22   1.278       .  A
O2          Ni25   1.912       .  S
O2           C11   1.268       .  A
O3           Ni7   1.921       .  S
O3          Ni25   1.904   1_554  S
O3          Ni19   1.917       .  S
O3           H26   0.967       .  S
C4           O21   1.277       .  A
C4           O13   1.274       .  A
C4          C598   1.477       .  S
O5          Ni24   1.928       .  S
O5           C11   1.270       .  A
O6          Ni24   1.901   1_554  S
O6            C8   1.267       .  A
Ni7          O10   1.936       .  S
Ni7          O12   1.917   1_554  S
C8           O18   1.272       .  A
C8          C602   1.475       .  S
O9          Ni25   1.917   1_554  S
O9           C15   1.276       .  A
O10          C15   1.279       .  A
C11         C617   1.479       .  S
O12          C14   1.272       .  A
O13         Ni24   1.917       .  S
C14          O20   1.272       .  A
C14         C605   1.480       .  S
C15         C613   1.477       .  S
H16          O17   0.968       .  S
O17         Ni25   1.914       .  S
O17         Ni19   1.913   1_556  S
O17         Ni24   1.920       .  S
O18         Ni19   1.931       .  S
Ni19         O23   1.905       .  S
Ni19         O21   1.933   1_554  S
O20         Ni25   1.931       .  S
C22          O23   1.266       .  A
C22         C610   1.480       .  S
O27         Ni33   1.928       .  S
O27          C48   1.270       .  A
O28         Ni51   1.902       .  S
O28          C37   1.265       .  A
O29         Ni33   1.921       .  S
O29         Ni51   1.914       .  S
O29         Ni45   1.916       .  S
O29          H52   0.967       .  S
C30          O47   1.276       .  A
C30          O39   1.279       .  A
C30         C582   1.481       .  S
O31         Ni50   1.960       .  S
O31          C37   1.280       .  A
O32         Ni50   1.916       .  S
O32          C34   1.271       .  A
Ni33         O36   1.922       .  S
Ni33         O38   1.900       .  S
C34          O44   1.272       .  A
C34         C577   1.478       .  S
O35         Ni51   1.928       .  S
O35          C41   1.274       .  A
O36          C41   1.274       .  A
C37         C573   1.487       .  S
O38          C40   1.267       .  A
O39         Ni50   1.938       .  S
C40          O46   1.275       .  A
C40         C593   1.481       .  S
C41         C586   1.477       .  S
H42          O43   0.967       .  S
O43         Ni51   1.917       .  S
O43         Ni45   1.909       .  S
O43         Ni50   1.925       .  S
O44         Ni45   1.931       .  S
Ni45         O49   1.913       .  S
Ni45         O47   1.920       .  S
O46         Ni51   1.941       .  S
C48          O49   1.269       .  A
C48         C590   1.479       .  S
O53         Ni61   1.916       .  S
O53          C63   1.281       .  A
O54        Ni681   1.922       .  S
O54          C64   1.281       .  A
O55         Ni61   1.932       .  S
O55          C65   1.283       .  A
O56        Ni681   1.922       .  S
O56          C66   1.281       .  A
O57        Ni682   1.915       .  S
O57          C66   1.280       .  A
O58         Ni62   1.919       .  S
O58          C65   1.280       .  A
O59        Ni682   1.904       .  S
O59          C64   1.277       .  A
O60         Ni62   1.904       .  S
O60          C63   1.280       .  A
Ni61        O674   1.914   1_545  S
Ni61        O676   1.935   1_545  S
Ni61        Ni62   2.392       .  S
Ni62        O677   1.916   1_545  S
Ni62        O679   1.899   1_545  S
C63         C557   1.470       .  S
C64         C544   1.458       .  S
C65         C534   1.475       .  S
C66         C564   1.467       .  S
O67         Ni75   1.901       .  S
O67          C77   1.278       .  A
O68         Ni75   1.902       .  S
O68          C78   1.279       .  A
O69         Ni75   1.926       .  S
O69          C79   1.282       .  A
O70         Ni75   1.924       .  S
O70          C80   1.282       .  A
O71         Ni76   1.928       .  S
O71          C80   1.282       .  A
O72         Ni76   1.930       .  S
O72          C79   1.282       .  A
O73         Ni76   1.933       .  S
O73          C78   1.284       .  A
O74         Ni76   1.931       .  S
O74          C77   1.284       .  A
Ni75        Ni76   2.387       .  S
C77         C514   1.477       .  S
C78         C494   1.477       .  S
C79         C524   1.479       .  S
C80         C504   1.477       .  S
O81         Ni89   1.895       .  S
O81          C91   1.278       .  A
O82       Ni1329   1.902       .  S
O82          C92   1.279       .  A
O83       Ni1329   1.913       .  S
O83          C93   1.282       .  A
O84         Ni89   1.917       .  S
O84          C94   1.280       .  A
O85         Ni90   1.926       .  S
O85          C94   1.281       .  A
O86       Ni1330   1.922       .  S
O86          C93   1.282       .  A
O87       Ni1330   1.917       .  S
O87          C92   1.282       .  A
O88         Ni90   1.926       .  S
O88          C91   1.283       .  A
Ni89       O1322   1.901   1_455  S
Ni89       O1323   1.915   1_455  S
Ni89        Ni90   2.390       .  S
Ni90       O1326   1.923   1_455  S
Ni90       O1327   1.920   1_455  S
C91         C467   1.468       .  S
C92         C484   1.469       .  S
C93         C454   1.476       .  S
C94         C474   1.470       .  S
C95         C574   1.486       .  S
C95         C100   1.403       .  A
C95        C1336   1.420       .  A
C96         C449   1.491       .  S
C96          C97   1.418       .  A
C96        C1335   1.419   1_455  A
C97          C98   1.401       .  A
C97         H102   1.084       .  S
C98         C527   1.502       .  S
C98        C1339   1.415   1_455  A
C99         C554   1.475       .  S
C99         C100   1.401       .  A
C99        C1338   1.416       .  A
C100        H101   1.085       .  S
C103        C581   1.493       .  S
C103        C108   1.408       .  A
C103        C724   1.420   1_545  A
C104        C446   1.491       .  S
C104        C105   1.411       .  A
C104        C723   1.419       .  A
C105        C106   1.402       .  A
C105        H110   1.083       .  S
C106        C477   1.491       .  S
C106        C727   1.416       .  A
C107        C517   1.485       .  S
C107        C108   1.400       .  A
C107        C726   1.417   1_545  A
C108        H109   1.084       .  S
C111        C441   1.498       .  S
C111        C112   1.424       .  A
C111        C116   1.409       .  A
C112        C618   1.492       .  S
C112        C113   1.412       .  A
C113        C114   1.400       .  A
C113        H118   1.083       .  S
C114        C457   1.485       .  S
C114        C115   1.411       .  A
C115        C547   1.479       .  S
C115        C116   1.396       .  A
C116        H117   1.080       .  S
C119        C437   1.483       .  S
C119        C120   1.420       .  A
C119        C124   1.408       .  A
C120        C594   1.499       .  S
C120        C121   1.407       .  A
C121        C122   1.401       .  A
C121        H126   1.081       .  S
C122        C487   1.474       .  S
C122        C123   1.413       .  A
C123        C567   1.489       .  S
C123        C124   1.397       .  A
C124        H125   1.084       .  S
C127        C434   1.477       .  S
C127        C132   1.402       .  A
C127        C748   1.414       .  A
C128        C597   1.493       .  S
C128        C129   1.415       .  A
C128        C747   1.416   1_545  A
C129        C130   1.404       .  A
C129        H134   1.084       .  S
C130        C507   1.502       .  S
C130        C751   1.417   1_545  A
C131        C464   1.473       .  S
C131        C132   1.398       .  A
C131        C750   1.416       .  A
C132        H133   1.085       .  S
C135        C606   1.497       .  S
C135        C140   1.413       .  A
C135       C1376   1.421       .  A
C136        C429   1.500       .  S
C136        C137   1.410       .  A
C136       C1375   1.424   1_455  A
C137        C138   1.401       .  A
C137        H142   1.084       .  S
C138        C497   1.485       .  S
C138       C1379   1.416   1_455  A
C139        C537   1.496       .  S
C139        C140   1.406       .  A
C139       C1378   1.418       .  A
C140        H141   1.083       .  S
O143       Ni149   1.954       .  S
O143        C164   1.279       .  A
O144       Ni167   1.906       .  S
O144        C153   1.266       .  A
O145       Ni149   1.921       .  S
O145       Ni167   1.903       .  S
O145       Ni161   1.917       .  S
O145        H168   0.966       .  S
C146        O163   1.274       .  A
C146        O155   1.272       .  A
C146        C450   1.476       .  S
O147       Ni166   1.923       .  S
O147        C153   1.269       .  A
O148       Ni166   1.893       .  S
O148        C150   1.266       .  A
Ni149       O152   1.943       .  S
Ni149       O154   1.913       .  S
C150        O160   1.273       .  A
C150        C418   1.473       .  S
O151       Ni167   1.918       .  S
O151        C157   1.275       .  A
O152        C157   1.280       .  A
C153        C438   1.472       .  S
O154        C156   1.270       .  A
O155       Ni166   1.918       .  S
C156        O162   1.271       .  A
C156        C445   1.476       .  S
C157        C426   1.484       .  S
H158        O159   0.969       .  S
O159       Ni167   1.916       .  S
O159       Ni161   1.912       .  S
O159       Ni166   1.920       .  S
O160       Ni161   1.935       .  S
Ni161       O165   1.900       .  S
Ni161       O163   1.928       .  S
O162       Ni167   1.927       .  S
C164        O165   1.265       .  A
C164        C421   1.484       .  S
O169       Ni175   1.921       .  S
O169        C190   1.268       .  A
O170       Ni193   1.900       .  S
O170        C179   1.267       .  A
O171       Ni175   1.916       .  S
O171       Ni193   1.905   1_554  S
O171       Ni187   1.917       .  S
O171        H194   0.967       .  S
C172        O189   1.276       .  A
C172        O181   1.281       .  A
C172        C430   1.486       .  S
O173       Ni192   1.951       .  S
O173        C179   1.280       .  A
O174       Ni192   1.917   1_554  S
O174        C176   1.271       .  A
Ni175       O178   1.915       .  S
Ni175       O180   1.899   1_554  S
C176        O186   1.273       .  A
C176        C410   1.481       .  S
O177       Ni193   1.942   1_554  S
O177        C183   1.279       .  A
O178        C183   1.274       .  A
C179        C433   1.480       .  S
O180        C182   1.265       .  A
O181       Ni192   1.947       .  S
C182        O188   1.274       .  A
C182        C442   1.477       .  S
C183        C414   1.480       .  S
H184        O185   0.966       .  S
O185       Ni193   1.924       .  S
O185       Ni187   1.899   1_556  S
O185       Ni192   1.918       .  S
O186       Ni187   1.934       .  S
Ni187       O191   1.906       .  S
Ni187       O189   1.921   1_554  S
O188       Ni193   1.936       .  S
C190        O191   1.266       .  A
C190        C405   1.470       .  S
O195       Ni203   1.918       .  S
O195        C205   1.280       .  A
O196      Ni1443   1.914   1_455  S
O196        C206   1.281       .  A
O197      Ni1443   1.919   1_455  S
O197        C207   1.281       .  A
O198       Ni203   1.926       .  S
O198        C208   1.282       .  A
O199       Ni204   1.912       .  S
O199        C208   1.280       .  A
O200      Ni1444   1.913   1_455  S
O200        C207   1.280       .  A
O201      Ni1444   1.903   1_455  S
O201        C206   1.280       .  A
O202       Ni204   1.902       .  S
O202        C205   1.278       .  A
Ni203      O1436   1.915       .  S
Ni203      O1437   1.926       .  S
Ni203      Ni204   2.393       .  S
Ni204      O1440   1.918       .  S
Ni204      O1441   1.904       .  S
C205        C379   1.455       .  S
C206        C386   1.468       .  S
C207        C396   1.463       .  S
C208        C366   1.467       .  S
O209       Ni217   1.917       .  S
O209        C219   1.282       .  A
O210       Ni217   1.908       .  S
O210        C220   1.279       .  A
O211       Ni217   1.916       .  S
O211        C221   1.282       .  A
O212       Ni217   1.909       .  S
O212        C222   1.279       .  A
O213       Ni218   1.937       .  S
O213        C222   1.285       .  A
O214       Ni218   1.933       .  S
O214        C221   1.284       .  A
O215       Ni218   1.917       .  S
O215        C220   1.279       .  A
O216       Ni218   1.912       .  S
O216        C219   1.280       .  A
Ni217      Ni218   2.390       .  S
C219        C346   1.475       .  S
C220        C336   1.459       .  S
C221        C359   1.487       .  S
C222        C326   1.475       .  S
C223        C578   1.494       .  S
C223        C228   1.412       .  A
C223        C844   1.423   1_545  A
C224        C425   1.497       .  S
C224        C225   1.408       .  A
C224        C843   1.420       .  A
C225        C226   1.402       .  A
C225        H230   1.084       .  S
C226        C349   1.484       .  S
C226        C847   1.416       .  A
C227        C369   1.490       .  S
C227        C228   1.401       .  A
C227        C846   1.415   1_545  A
C228        H229   1.083       .  S
O231       Ni239   1.915       .  S
O231        C241   1.281       .  A
O232       Ni859   1.922   1_545  S
O232        C242   1.282       .  A
O233       Ni859   1.917   1_545  S
O233        C243   1.280       .  A
O234       Ni239   1.920       .  S
O234        C244   1.282       .  A
O235       Ni240   1.916       .  S
O235        C244   1.282       .  A
O236       Ni860   1.914   1_545  S
O236        C243   1.280       .  A
O237       Ni860   1.897   1_545  S
O237        C242   1.278       .  A
O238       Ni240   1.905       .  S
O238        C241   1.280       .  A
Ni239       O852   1.919       .  S
Ni239       O853   1.920       .  S
Ni239      Ni240   2.391       .  S
Ni240       O856   1.916       .  S
Ni240       O857   1.894       .  S
C241        C289   1.472       .  S
C242        C316   1.467       .  S
C243        C306   1.463       .  S
C244        C296   1.479       .  S
C245        C609   1.485       .  S
C245        C250   1.404       .  A
C245        C866   1.418   1_545  A
C246        C413   1.498       .  S
C246        C247   1.417       .  A
C246        C865   1.418       .  A
C247        C248   1.402       .  A
C247        H252   1.083       .  S
C248        C356   1.496       .  S
C248        C869   1.414       .  A
C249        C376   1.478       .  S
C249        C250   1.400       .  A
C249        C868   1.413   1_545  A
C250        H251   1.085       .  S
C253        C589   1.490       .  S
C253        C254   1.421       .  A
C253        C258   1.408       .  A
C254        C417   1.492       .  S
C254        C255   1.407       .  A
C255        C256   1.396       .  A
C255        H260   1.081       .  S
C256        C389   1.476       .  S
C256        C257   1.414       .  A
C257        C309   1.488       .  S
C257        C258   1.400       .  A
C258        H259   1.083       .  S
C261        C601   1.494       .  S
C261        C262   1.418       .  A
C261        C266   1.408       .  A
C262        C406   1.484       .  S
C262        C263   1.406       .  A
C263        C264   1.397       .  A
C263        H268   1.084       .  S
C264        C399   1.489       .  S
C264        C265   1.414       .  A
C265        C319   1.474       .  S
C265        C266   1.398       .  A
C266        H267   1.082       .  S
C269        C585   1.492       .  S
C269        C274   1.415       .  A
C269       C1510   1.419       .  A
C270        C422   1.480       .  S
C270        C271   1.402       .  A
C270       C1509   1.416   1_455  A
C271        C272   1.400       .  A
C271        H276   1.085       .  S
C272        C286   1.475       .  S
C272       C1513   1.416   1_455  A
C273        C329   1.498       .  S
C273        C274   1.400       .  A
C273       C1512   1.415       .  A
C274        H275   1.084       .  S
C277        C409   1.496       .  S
C277        C282   1.413       .  A
C277       C1518   1.421   1_455  A
C278        C614   1.486       .  S
C278        C279   1.405       .  A
C278       C1517   1.419       .  A
C279        C280   1.395       .  A
C279        H284   1.085       .  S
C280        C339   1.482       .  S
C280       C1521   1.414       .  A
C281        C299   1.488       .  S
C281        C282   1.406       .  A
C281       C1520   1.414   1_455  A
C282        H283   1.083       .  S
C285        C286   1.402       .  A
C285        C290   1.398       .  A
C285        H291   1.083       .  S
C286        C287   1.401       .  A
C287        C288   1.391       .  A
C287       H1532   1.083       .  S
C288        C289   1.404       .  A
C288        H293   1.083       .  S
C289        C290   1.405       .  A
C290        H294   1.083       .  S
H292       C1527   1.083       .  S
C295        C296   1.404       .  A
C295        C300   1.395       .  A
C295        H301   1.083       .  S
C296        C297   1.406       .  A
C297        C298   1.402       .  A
C297        H302   1.083       .  S
C298        C299   1.403       .  A
C298        H303   1.083       .  S
C299        C300   1.405       .  A
C300       H1544   1.083       .  S
H304       C1540   1.083       .  S
C305        C306   1.400       .  A
C305        C310   1.398       .  A
C305        H311   1.083       .  S
C306        C307   1.401       .  A
C307        C308   1.397       .  A
C307        H312   1.083       .  S
C308        C309   1.405       .  A
C308        H313   1.083       .  S
C309        C310   1.408       .  A
C310        H314   1.083       .  S
C315        C316   1.403       .  A
C315        C320   1.399       .  A
C315        H321   1.083       .  S
C316        C317   1.404       .  A
C317        C318   1.389       .  A
C317        H322   1.083       .  S
C318        C319   1.400       .  A
C318        H323   1.083       .  S
C319        C320   1.404       .  A
C320        H324   1.083       .  S
C325        C326   1.402       .  A
C325        C330   1.403       .  A
C325        H331   1.083       .  S
C326        C327   1.403       .  A
C327        C328   1.400       .  A
C327        H332   1.084       .  S
C328        C329   1.408       .  A
C328        H333   1.083       .  S
C329        C330   1.408       .  A
C330        H334   1.083       .  S
C335        C336   1.401       .  A
C335        C340   1.398       .  A
C335        H341   1.083       .  S
C336        C337   1.400       .  A
C337        C338   1.394       .  A
C337        H342   1.084       .  S
C338        C339   1.405       .  A
C338        H343   1.083       .  S
C339        C340   1.405       .  A
C340        H344   1.083       .  S
C345        C346   1.406       .  A
C345        C350   1.398       .  A
C345        H351   1.083       .  S
C346        C347   1.404       .  A
C347        C348   1.395       .  A
C347        H352   1.083       .  S
C348        C349   1.405       .  A
C348        H973   1.083       .  S
C349        C350   1.403       .  A
C350        H354   1.083       .  S
H353        C968   1.083   1_545  S
C355        C356   1.405       .  A
C355        C360   1.397       .  A
C355        H361   1.083       .  S
C356        C357   1.407       .  A
C357        C358   1.406       .  A
C357        H362   1.083       .  S
C358        C359   1.407       .  A
C358        H363   1.083       .  S
C359        C360   1.406       .  A
C360        H364   1.083       .  S
C365        C366   1.403       .  A
C365        C370   1.401       .  A
C365        H371   1.083       .  S
C366        C367   1.399       .  A
C367        C368   1.396       .  A
C367        H372   1.083       .  S
C368        C369   1.407       .  A
C368        H993   1.083       .  S
C369        C370   1.406       .  A
C370        H374   1.083       .  S
H373        C988   1.083       .  S
C375        C376   1.404       .  A
C375        C380   1.396       .  A
C375        H381   1.083       .  S
C376        C377   1.404       .  A
C377        C378   1.394       .  A
C377        H382   1.083       .  S
C378        C379   1.399       .  A
C378        H383   1.084       .  S
C379        C380   1.400       .  A
C380        H384   1.084       .  S
C385        C386   1.404       .  A
C385        C390   1.397       .  A
C385        H391   1.083       .  S
C386        C387   1.404       .  A
C387        C388   1.390       .  A
C387        H392   1.083       .  S
C388        C389   1.401       .  A
C388        H393   1.083       .  S
C389        C390   1.403       .  A
C390        H394   1.083       .  S
C395        C396   1.400       .  A
C395        C400   1.397       .  A
C395        H401   1.083       .  S
C396        C397   1.400       .  A
C397        C398   1.397       .  A
C397        H402   1.084       .  S
C398        C399   1.406       .  A
C398        H403   1.083       .  S
C399        C400   1.407       .  A
C400        H404   1.082       .  S
C405        C406   1.348       .  D
C405        H407   1.086       .  S
C406        H408   1.086       .  S
C409        C410   1.351       .  D
C409        H411   1.087       .  S
C410        H412   1.086       .  S
C413        C414   1.348       .  D
C413        H415   1.086       .  S
C414        H416   1.087       .  S
C417        C418   1.351       .  D
C417        H419   1.086       .  S
C418        H420   1.084       .  S
C421        C422   1.341       .  D
C421        H423   1.087       .  S
C422        H424   1.087       .  S
C425        C426   1.349       .  D
C425        H427   1.086       .  S
C426        H428   1.087       .  S
C429        C430   1.352       .  D
C429        H431   1.086       .  S
C430        H432   1.087       .  S
C433        C434   1.340       .  D
C433        H435   1.087       .  S
C434        H436   1.087       .  S
C437        C438   1.348       .  D
C437        H439   1.086       .  S
C438        H440   1.087       .  S
C441        C442   1.354       .  D
C441        H443   1.086       .  S
C442        H444   1.083       .  S
C445        C446   1.348       .  D
C445        H447   1.086       .  S
C446        H448   1.087       .  S
C449        C450   1.347       .  D
C449        H451   1.086       .  S
C450        H452   1.089       .  S
C453        C454   1.406       .  A
C453        C458   1.403       .  A
C453        H459   1.083       .  S
C454        C455   1.403       .  A
C455        C456   1.393       .  A
C455        H460   1.083       .  S
C456        C457   1.404       .  A
C456        H461   1.083       .  S
C457        C458   1.405       .  A
C458        H462   1.083       .  S
C463        C464   1.405       .  A
C463        C468   1.400       .  A
C463        H469   1.083       .  S
C464        C465   1.399       .  A
C465        C466   1.389       .  A
C465        H470   1.084       .  S
C466        C467   1.405       .  A
C466        H471   1.083       .  S
C467        C468   1.403       .  A
C468        H472   1.083       .  S
C473        C474   1.400       .  A
C473        C478   1.399       .  A
C473        H479   1.083       .  S
C474        C475   1.403       .  A
C475        C476   1.402       .  A
C475        H480   1.083       .  S
C476        C477   1.406       .  A
C476        H481   1.083       .  S
C477        C478   1.407       .  A
C478        H482   1.083       .  S
C483        C484   1.403       .  A
C483        C488   1.395       .  A
C483        H489   1.083       .  S
C484        C485   1.405       .  A
C485        C486   1.392       .  A
C485        H490   1.083       .  S
C486        C487   1.402       .  A
C486        H491   1.083       .  S
C487        C488   1.402       .  A
C488        H492   1.083       .  S
C493        C494   1.405       .  A
C493        C498   1.403       .  A
C493        H499   1.083       .  S
C494        C495   1.405       .  A
C495        C496   1.393       .  A
C495        H500   1.083       .  S
C496        C497   1.402       .  A
C496        H501   1.083       .  S
C497        C498   1.406       .  A
C498        H502   1.083       .  S
C503        C504   1.403       .  A
C503        C508   1.403       .  A
C503        H509   1.083       .  S
C504        C505   1.402       .  A
C505        C506   1.401       .  A
C505        H510   1.083       .  S
C506        C507   1.408       .  A
C506        H511   1.083       .  S
C507        C508   1.410       .  A
C508        H512   1.082   1_545  S
C513        C514   1.405       .  A
C513        C518   1.402       .  A
C513        H519   1.083       .  S
C514        C515   1.405       .  A
C515        C516   1.393       .  A
C515        H520   1.083       .  S
C516        C517   1.402       .  A
C516        H521   1.083       .  S
C517        C518   1.406       .  A
C518        H522   1.083       .  S
C523        C524   1.403       .  A
C523        C528   1.403       .  A
C523        H529   1.083       .  S
C524        C525   1.404       .  A
C525        C526   1.404       .  A
C525        H530   1.083       .  S
C526        C527   1.407       .  A
C526        H531   1.083       .  S
C527        C528   1.410       .  A
C528       H1772   1.083       .  S
H532       C1768   1.082       .  S
C533        C534   1.404       .  A
C533        C538   1.403       .  A
C533        H539   1.083       .  S
C534        C535   1.401       .  A
C535        C536   1.400       .  A
C535        H540   1.083       .  S
C536        C537   1.408       .  A
C536       H1781   1.083       .  S
C537        C538   1.407       .  A
C538        H542   1.083       .  S
H541       C1776   1.083       .  S
C543        C544   1.400       .  A
C543        C548   1.396       .  A
C543        H549   1.083       .  S
C544        C545   1.400       .  A
C545        C546   1.395       .  A
C545        H550   1.084       .  S
C546        C547   1.404       .  A
C546        H551   1.083       .  S
C547        C548   1.403       .  A
C548        H552   1.083       .  S
C553        C554   1.403       .  A
C553        C558   1.398       .  A
C553        H559   1.083       .  S
C554        C555   1.401       .  A
C555        C556   1.391       .  A
C555        H560   1.083       .  S
C556        C557   1.404       .  A
C556        H561   1.083       .  S
C557        C558   1.405       .  A
C558        H562   1.083       .  S
C563        C564   1.402       .  A
C563        C568   1.399       .  A
C563        H569   1.083       .  S
C564        C565   1.401       .  A
C565        C566   1.399       .  A
C565        H570   1.083       .  S
C566        C567   1.407       .  A
C566        H571   1.083       .  S
C567        C568   1.405       .  A
C568        H572   1.083       .  S
C573        C574   1.343       .  D
C573        H575   1.087       .  S
C574        H576   1.086       .  S
C577        C578   1.351       .  D
C577        H579   1.086       .  S
C578        H580   1.087       .  S
C581        C582   1.350       .  D
C581        H583   1.086       .  S
C582        H584   1.087       .  S
C585        C586   1.349       .  D
C585        H587   1.086       .  S
C586        H588   1.089       .  S
C589        C590   1.351       .  D
C589        H591   1.086       .  S
C590        H592   1.086       .  S
C593        C594   1.353       .  D
C593        H595   1.084       .  S
C594        H596   1.085       .  S
C597        C598   1.348       .  D
C597        H599   1.086       .  S
C598        H600   1.088       .  S
C601        C602   1.350       .  D
C601        H603   1.086       .  S
C602        H604   1.084       .  S
C605        C606   1.352       .  D
C605        H607   1.086       .  S
C606        H608   1.087       .  S
C609        C610   1.344       .  D
C609        H611   1.086       .  S
C610        H612   1.087       .  S
C613        C614   1.348       .  D
C613        H615   1.087       .  S
C614        H616   1.086       .  S
C617        C618   1.351       .  D
C617        H619   1.086       .  S
C618        H620   1.086       .  S
O621       Ni627   1.952       .  S
O621        C642   1.278       .  A
O622       Ni645   1.907       .  S
O622        C631   1.267       .  A
O623       Ni627   1.921       .  S
O623       Ni645   1.903   1_554  S
O623       Ni639   1.915       .  S
O623        H646   0.967       .  S
C624        O641   1.275       .  A
C624        O633   1.273       .  A
C624       C1218   1.476       .  S
O625       Ni644   1.927       .  S
O625        C631   1.270       .  A
O626       Ni644   1.899   1_554  S
O626        C628   1.267       .  A
Ni627       O630   1.935       .  S
Ni627       O632   1.915   1_554  S
C628        O638   1.275       .  A
C628       C1222   1.479       .  S
O629       Ni645   1.918   1_554  S
O629        C635   1.276       .  A
O630        C635   1.279       .  A
C631       C1237   1.476       .  S
O632        C634   1.270       .  A
O633       Ni644   1.917       .  S
C634        O640   1.270       .  A
C634       C1225   1.476       .  S
C635       C1233   1.478       .  S
H636        O637   0.968       .  S
O637       Ni645   1.915       .  S
O637       Ni639   1.914   1_556  S
O637       Ni644   1.919       .  S
O638       Ni639   1.940       .  S
Ni639       O643   1.903       .  S
Ni639       O641   1.930   1_554  S
O640       Ni645   1.926       .  S
C642        O643   1.266       .  A
C642       C1230   1.482       .  S
O647       Ni653   1.929       .  S
O647        C668   1.270       .  A
O648       Ni671   1.914       .  S
O648        C657   1.268       .  A
O649       Ni653   1.919       .  S
O649       Ni671   1.918       .  S
O649       Ni665   1.919       .  S
O649        H672   0.967       .  S
C650        O667   1.278       .  A
C650        O659   1.279       .  A
C650       C1202   1.483       .  S
O651       Ni670   1.941       .  S
O651        C657   1.274       .  A
O652       Ni670   1.912       .  S
O652        C654   1.270       .  A
Ni653       O656   1.918       .  S
Ni653       O658   1.902       .  S
C654        O664   1.271       .  A
C654       C1197   1.476       .  S
O655       Ni671   1.935       .  S
O655        C661   1.277       .  A
O656        C661   1.274       .  A
C657       C1193   1.477       .  S
O658        C660   1.267       .  A
O659       Ni670   1.933       .  S
C660        O666   1.275       .  A
C660       C1213   1.484       .  S
C661       C1206   1.479       .  S
H662        O663   0.967       .  S
O663       Ni671   1.925       .  S
O663       Ni665   1.903       .  S
O663       Ni670   1.920       .  S
O664       Ni665   1.929       .  S
Ni665       O669   1.907       .  S
Ni665       O667   1.927       .  S
O666       Ni671   1.943       .  S
C668        O669   1.267       .  A
C668       C1210   1.475       .  S
O673       Ni681   1.922       .  S
O673        C683   1.282       .  A
O674        C684   1.279       .  A
O675       Ni681   1.921       .  S
O675        C685   1.280       .  A
O676        C686   1.284       .  A
O677        C686   1.280       .  A
O678       Ni682   1.917       .  S
O678        C685   1.281       .  A
O679        C684   1.277       .  A
O680       Ni682   1.905       .  S
O680        C683   1.280       .  A
Ni681      Ni682   2.392       .  S
C683       C1177   1.473       .  S
C684       C1164   1.450       .  S
C685       C1154   1.466       .  S
C686       C1184   1.476       .  S
O687       Ni695   1.902       .  S
O687        C697   1.279       .  A
O688       Ni695   1.901       .  S
O688        C698   1.279       .  A
O689       Ni695   1.926       .  S
O689        C699   1.282       .  A
O690       Ni695   1.923       .  S
O690        C700   1.282       .  A
O691       Ni696   1.923       .  S
O691        C700   1.281       .  A
O692       Ni696   1.926       .  S
O692        C699   1.282       .  A
O693       Ni696   1.929       .  S
O693        C698   1.284       .  A
O694       Ni696   1.929       .  S
O694        C697   1.284       .  A
Ni695      Ni696   2.388       .  S
C697       C1134   1.475       .  S
C698       C1114   1.474       .  S
C699       C1144   1.477       .  S
C700       C1124   1.473       .  S
O701       Ni709   1.892       .  S
O701        C711   1.277       .  A
O702      Ni1949   1.902       .  S
O702        C712   1.279       .  A
O703      Ni1949   1.915       .  S
O703        C713   1.281       .  A
O704       Ni709   1.914       .  S
O704        C714   1.280       .  A
O705       Ni710   1.924       .  S
O705        C714   1.281       .  A
O706      Ni1950   1.927       .  S
O706        C713   1.283       .  A
O707      Ni1950   1.923       .  S
O707        C712   1.283       .  A
O708       Ni710   1.930       .  S
O708        C711   1.284       .  A
Ni709      O1942   1.899   1_455  S
Ni709      O1943   1.913   1_455  S
Ni709      Ni710   2.390       .  S
Ni710      O1946   1.925   1_455  S
Ni710      O1947   1.923   1_455  S
C711       C1087   1.469       .  S
C712       C1104   1.474       .  S
C713       C1074   1.481       .  S
C714       C1094   1.467       .  S
C715       C1194   1.501       .  S
C715       C1956   1.423       .  A
C715        C720   1.414       .  A
C716       C1069   1.494       .  S
C716       C1955   1.418   1_455  A
C716        C717   1.417       .  A
C717        C718   1.403       .  A
C717        H722   1.084       .  S
C718       C1147   1.501       .  S
C718       C1959   1.416   1_455  A
C719       C1174   1.480       .  S
C719       C1958   1.412       .  A
C719        C720   1.401       .  A
C720        H721   1.083       .  S
C723       C1201   1.492       .  S
C723        C728   1.407       .  A
C724       C1066   1.495       .  S
C724        C725   1.412       .  A
C725        C726   1.405       .  A
C725        H730   1.083       .  S
C726       C1097   1.491       .  S
C727       C1137   1.482       .  S
C727        C728   1.401       .  A
C728        H729   1.084       .  S
C731       C1061   1.498       .  S
C731        C732   1.422       .  A
C731        C736   1.405       .  A
C732       C1238   1.488       .  S
C732        C733   1.412       .  A
C733        C734   1.400       .  A
C733        H738   1.083       .  S
C734       C1077   1.492       .  S
C734        C735   1.413       .  A
C735       C1167   1.474       .  S
C735        C736   1.395       .  A
C736        H737   1.079       .  S
C739       C1057   1.487       .  S
C739        C740   1.421       .  A
C739        C744   1.411       .  A
C740       C1214   1.502       .  S
C740        C741   1.408       .  A
C741        C742   1.404       .  A
C741        H746   1.081       .  S
C742       C1107   1.478       .  S
C742        C743   1.418       .  A
C743       C1187   1.500       .  S
C743        C744   1.401       .  A
C744        H745   1.084       .  S
C747       C1054   1.481       .  S
C747        C752   1.402       .  A
C748       C1217   1.492       .  S
C748        C749   1.414       .  A
C749        C750   1.402       .  A
C749        H754   1.084       .  S
C750       C1127   1.497       .  S
C751       C1084   1.474       .  S
C751        C752   1.400       .  A
C752        H753   1.085       .  S
C755       C1226   1.493       .  S
C755       C1996   1.420       .  A
C755        C760   1.410       .  A
C756       C1049   1.493       .  S
C756       C1995   1.420   1_455  A
C756        C757   1.408       .  A
C757        C758   1.400       .  A
C757        H762   1.084       .  S
C758       C1117   1.484       .  S
C758       C1999   1.418   1_455  A
C759       C1157   1.492       .  S
C759       C1998   1.417       .  A
C759        C760   1.402       .  A
C760        H761   1.082       .  S
O763       Ni769   1.957       .  S
O763        C784   1.281       .  A
O764       Ni787   1.905       .  S
O764        C773   1.266       .  A
O765       Ni769   1.921       .  S
O765       Ni787   1.901       .  S
O765       Ni781   1.921       .  S
O765        H788   0.966       .  S
C766        O783   1.276       .  A
C766        O775   1.273       .  A
C766       C1070   1.478       .  S
O767       Ni786   1.927       .  S
O767        C773   1.269       .  A
O768       Ni786   1.896       .  S
O768        C770   1.266       .  A
Ni769       O772   1.946       .  S
Ni769       O774   1.918       .  S
C770        O780   1.274       .  A
C770       C1038   1.477       .  S
O771       Ni787   1.920       .  S
O771        C777   1.276       .  A
O772        C777   1.281       .  A
C773       C1058   1.474       .  S
O774        C776   1.271       .  A
O775       Ni786   1.918       .  S
C776        O782   1.271       .  A
C776       C1065   1.480       .  S
C777       C1046   1.486       .  S
H778        O779   0.968       .  S
O779       Ni787   1.916       .  S
O779       Ni781   1.911       .  S
O779       Ni786   1.919       .  S
O780       Ni781   1.938       .  S
Ni781       O785   1.901       .  S
Ni781       O783   1.934       .  S
O782       Ni787   1.929       .  S
C784        O785   1.267       .  A
C784       C1041   1.485       .  S
O789       Ni795   1.920       .  S
O789        C810   1.267       .  A
O790       Ni813   1.904       .  S
O790        C799   1.267       .  A
O791       Ni795   1.917       .  S
O791       Ni813   1.908   1_554  S
O791       Ni807   1.913       .  S
O791        H814   0.967       .  S
C792        O809   1.274       .  A
C792        O801   1.280       .  A
C792       C1050   1.481       .  S
O793       Ni812   1.953       .  S
O793        C799   1.279       .  A
O794       Ni812   1.915   1_554  S
O794        C796   1.271       .  A
Ni795       O798   1.916       .  S
Ni795       O800   1.896   1_554  S
C796        O806   1.272       .  A
C796       C1030   1.477       .  S
O797       Ni813   1.938   1_554  S
O797        C803   1.279       .  A
O798        C803   1.274       .  A
C799       C1053   1.484       .  S
O800        C802   1.264       .  A
O801       Ni812   1.943       .  S
C802        O808   1.272       .  A
C802       C1062   1.474       .  S
C803       C1034   1.480       .  S
H804        O805   0.966       .  S
O805       Ni813   1.923       .  S
O805       Ni807   1.905   1_556  S
O805       Ni812   1.920       .  S
O806       Ni807   1.930       .  S
Ni807       O811   1.910       .  S
Ni807       O809   1.915   1_554  S
O808       Ni813   1.932       .  S
C810        O811   1.267       .  A
C810       C1025   1.471       .  S
O815       Ni823   1.917       .  S
O815        C825   1.280       .  A
O816      Ni2063   1.914   1_455  S
O816        C826   1.281       .  A
O817      Ni2063   1.925   1_455  S
O817        C827   1.282       .  A
O818       Ni823   1.925       .  S
O818        C828   1.282       .  A
O819       Ni824   1.914       .  S
O819        C828   1.280       .  A
O820      Ni2064   1.916   1_455  S
O820        C827   1.280       .  A
O821      Ni2064   1.901   1_455  S
O821        C826   1.279       .  A
O822       Ni824   1.903       .  S
O822        C825   1.278       .  A
Ni823      O2056   1.914       .  S
Ni823      O2057   1.925       .  S
Ni823      Ni824   2.392       .  S
Ni824      O2060   1.918       .  S
Ni824      O2061   1.904       .  S
C825        C999   1.455       .  S
C826       C1006   1.467       .  S
C827       C1016   1.470       .  S
C828        C986   1.469       .  S
O829       Ni837   1.922       .  S
O829        C839   1.283       .  A
O830       Ni837   1.913       .  S
O830        C840   1.280       .  A
O831       Ni837   1.916       .  S
O831        C841   1.282       .  A
O832       Ni837   1.912       .  S
O832        C842   1.279       .  A
O833       Ni838   1.933       .  S
O833        C842   1.284       .  A
O834       Ni838   1.928       .  S
O834        C841   1.283       .  A
O835       Ni838   1.919       .  S
O835        C840   1.280       .  A
O836       Ni838   1.914       .  S
O836        C839   1.280       .  A
Ni837      Ni838   2.390       .  S
C839        C966   1.479       .  S
C840        C956   1.463       .  S
C841        C979   1.484       .  S
C842        C946   1.473       .  S
C843       C1198   1.490       .  S
C843        C848   1.411       .  A
C844       C1045   1.499       .  S
C844        C845   1.411       .  A
C845        C846   1.404       .  A
C845        H850   1.083       .  S
C846        C969   1.488       .  S
C847        C989   1.492       .  S
C847        C848   1.402       .  A
C848        H849   1.083       .  S
O851       Ni859   1.918       .  S
O851        C861   1.282       .  A
O852        C862   1.282       .  A
O853        C863   1.280       .  A
O854       Ni859   1.921       .  S
O854        C864   1.282       .  A
O855       Ni860   1.914       .  S
O855        C864   1.282       .  A
O856        C863   1.281       .  A
O857        C862   1.277       .  A
O858       Ni860   1.908       .  S
O858        C861   1.280       .  A
Ni859      Ni860   2.391       .  S
C861        C909   1.474       .  S
C862        C936   1.462       .  S
C863        C926   1.466       .  S
C864        C916   1.479       .  S
C865       C1229   1.480       .  S
C865        C870   1.402       .  A
C866       C1033   1.499       .  S
C866        C867   1.418       .  A
C867        C868   1.402       .  A
C867        H872   1.083       .  S
C868        C976   1.494       .  S
C869        C996   1.478       .  S
C869        C870   1.399       .  A
C870        H871   1.085       .  S
C873       C1209   1.488       .  S
C873        C874   1.421       .  A
C873        C878   1.408       .  A
C874       C1037   1.495       .  S
C874        C875   1.407       .  A
C875        C876   1.398       .  A
C875        H880   1.081       .  S
C876       C1009   1.474       .  S
C876        C877   1.414       .  A
C877        C929   1.490       .  S
C877        C878   1.398       .  A
C878        H879   1.084       .  S
C881       C1221   1.498       .  S
C881        C882   1.421       .  A
C881        C886   1.406       .  A
C882       C1026   1.484       .  S
C882        C883   1.408       .  A
C883        C884   1.398       .  A
C883        H888   1.084       .  S
C884       C1019   1.495       .  S
C884        C885   1.414       .  A
C885        C939   1.469       .  S
C885        C886   1.399       .  A
C886        H887   1.082       .  S
C889       C1205   1.494       .  S
C889       C2130   1.418       .  A
C889        C894   1.414       .  A
C890       C1042   1.482       .  S
C890       C2129   1.417   1_455  A
C890        C891   1.402       .  A
C891        C892   1.400       .  A
C891        H896   1.085       .  S
C892        C906   1.476       .  S
C892       C2133   1.417   1_455  A
C893        C949   1.494       .  S
C893       C2132   1.414       .  A
C893        C894   1.400       .  A
C894        H895   1.084       .  S
C897       C1029   1.491       .  S
C897       C2138   1.419   1_455  A
C897        C902   1.412       .  A
C898       C1234   1.488       .  S
C898       C2137   1.422       .  A
C898        C899   1.408       .  A
C899        C900   1.397       .  A
C899        H904   1.084       .  S
C900        C959   1.487       .  S
C900       C2141   1.415       .  A
C901        C919   1.488       .  S
C901       C2140   1.416   1_455  A
C901        C902   1.405       .  A
C902        H903   1.083       .  S
C905        C906   1.402       .  A
C905        C910   1.397       .  A
C905        H911   1.083       .  S
C906        C907   1.402       .  A
C907        C908   1.394       .  A
C907       H2152   1.083       .  S
C908        C909   1.406       .  A
C908        H913   1.083       .  S
C909        C910   1.405       .  A
C910        H914   1.083       .  S
H912       C2147   1.083       .  S
C915        C916   1.404       .  A
C915        C920   1.393       .  A
C915        H921   1.083       .  S
C916        C917   1.407       .  A
C917        C918   1.403       .  A
C917        H922   1.083       .  S
C918        C919   1.405       .  A
C918        H923   1.083       .  S
C919        C920   1.404       .  A
C920       H2164   1.083       .  S
H924       C2160   1.083       .  S
C925        C926   1.401       .  A
C925        C930   1.398       .  A
C925        H931   1.083       .  S
C926        C927   1.401       .  A
C927        C928   1.398       .  A
C927        H932   1.083       .  S
C928        C929   1.406       .  A
C928        H933   1.083       .  S
C929        C930   1.407       .  A
C930        H934   1.083       .  S
C935        C936   1.402       .  A
C935        C940   1.396       .  A
C935        H941   1.083       .  S
C936        C937   1.404       .  A
C937        C938   1.389       .  A
C937        H942   1.083       .  S
C938        C939   1.400       .  A
C938        H943   1.083       .  S
C939        C940   1.403       .  A
C940        H944   1.083       .  S
C945        C946   1.402       .  A
C945        C950   1.401       .  A
C945        H951   1.083       .  S
C946        C947   1.403       .  A
C947        C948   1.400       .  A
C947        H952   1.084       .  S
C948        C949   1.408       .  A
C948        H953   1.083       .  S
C949        C950   1.406       .  A
C950        H954   1.083       .  S
C955        C956   1.402       .  A
C955        C960   1.400       .  A
C955        H961   1.083       .  S
C956        C957   1.399       .  A
C957        C958   1.395       .  A
C957        H962   1.084       .  S
C958        C959   1.406       .  A
C958        H963   1.083       .  S
C959        C960   1.406       .  A
C960        H964   1.083       .  S
C965        C966   1.407       .  A
C965        C970   1.399       .  A
C965        H971   1.083       .  S
C966        C967   1.404       .  A
C967        C968   1.397       .  A
C967        H972   1.083       .  S
C968        C969   1.406       .  A
C969        C970   1.403       .  A
C970        H974   1.083       .  S
C975        C976   1.405       .  A
C975        C980   1.397       .  A
C975        H981   1.083       .  S
C976        C977   1.406       .  A
C977        C978   1.405       .  A
C977        H982   1.083       .  S
C978        C979   1.407       .  A
C978        H983   1.083       .  S
C979        C980   1.405       .  A
C980        H984   1.083       .  S
C985        C986   1.403       .  A
C985        C990   1.401       .  A
C985        H991   1.083       .  S
C986        C987   1.400       .  A
C987        C988   1.397       .  A
C987        H992   1.083       .  S
C988        C989   1.408       .  A
C989        C990   1.406       .  A
C990        H994   1.083       .  S
C995        C996   1.404       .  A
C995       C1000   1.396       .  A
C995       H1001   1.083       .  S
C996        C997   1.404       .  A
C997        C998   1.394       .  A
C997       H1002   1.083       .  S
C998        C999   1.399       .  A
C998       H1003   1.084       .  S
C999       C1000   1.401       .  A
C1000      H1004   1.084       .  S
C1005      C1006   1.404       .  A
C1005      C1010   1.396       .  A
C1005      H1011   1.083       .  S
C1006      C1007   1.404       .  A
C1007      C1008   1.390       .  A
C1007      H1012   1.083       .  S
C1008      C1009   1.401       .  A
C1008      H1013   1.083       .  S
C1009      C1010   1.403       .  A
C1010      H1014   1.083       .  S
C1015      C1016   1.402       .  A
C1015      C1020   1.400       .  A
C1015      H1021   1.083       .  S
C1016      C1017   1.401       .  A
C1017      C1018   1.400       .  A
C1017      H1022   1.083       .  S
C1018      C1019   1.407       .  A
C1018      H1023   1.083       .  S
C1019      C1020   1.408       .  A
C1020      H1024   1.082       .  S
C1025      C1026   1.349       .  D
C1025      H1027   1.086       .  S
C1026      H1028   1.086       .  S
C1029      C1030   1.348       .  D
C1029      H1031   1.087       .  S
C1030      H1032   1.086       .  S
C1033      C1034   1.348       .  D
C1033      H1035   1.086       .  S
C1034      H1036   1.087       .  S
C1037      C1038   1.353       .  D
C1037      H1039   1.085       .  S
C1038      H1040   1.084       .  S
C1041      C1042   1.341       .  D
C1041      H1043   1.087       .  S
C1042      H1044   1.087       .  S
C1045      C1046   1.351       .  D
C1045      H1047   1.086       .  S
C1046      H1048   1.087       .  S
C1049      C1050   1.348       .  D
C1049      H1051   1.086       .  S
C1050      H1052   1.087       .  S
C1053      C1054   1.342       .  D
C1053      H1055   1.087       .  S
C1054      H1056   1.086       .  S
C1057      C1058   1.348       .  D
C1057      H1059   1.086       .  S
C1058      H1060   1.086       .  S
C1061      C1062   1.354       .  D
C1061      H1063   1.086       .  S
C1062      H1064   1.082       .  S
C1065      C1066   1.350       .  D
C1065      H1067   1.086       .  S
C1066      H1068   1.087       .  S
C1069      C1070   1.348       .  D
C1069      H1071   1.086       .  S
C1070      H1072   1.089       .  S
C1073      C1074   1.406       .  A
C1073      C1078   1.403       .  A
C1073      H1079   1.083       .  S
C1074      C1075   1.405       .  A
C1075      C1076   1.396       .  A
C1075      H1080   1.083       .  S
C1076      C1077   1.406       .  A
C1076      H1081   1.083       .  S
C1077      C1078   1.406       .  A
C1078      H1082   1.083       .  S
C1083      C1084   1.405       .  A
C1083      C1088   1.401       .  A
C1083      H1089   1.083       .  S
C1084      C1085   1.399       .  A
C1085      C1086   1.389       .  A
C1085      H1090   1.084       .  S
C1086      C1087   1.405       .  A
C1086      H1091   1.083       .  S
C1087      C1088   1.403       .  A
C1088      H1092   1.083       .  S
C1093      C1094   1.400       .  A
C1093      C1098   1.398       .  A
C1093      H1099   1.083       .  S
C1094      C1095   1.402       .  A
C1095      C1096   1.400       .  A
C1095      H1100   1.083       .  S
C1096      C1097   1.406       .  A
C1096      H1101   1.083       .  S
C1097      C1098   1.408       .  A
C1098      H1102   1.083       .  S
C1103      C1104   1.405       .  A
C1103      C1108   1.400       .  A
C1103      H1109   1.083       .  S
C1104      C1105   1.405       .  A
C1105      C1106   1.392       .  A
C1105      H1110   1.083       .  S
C1106      C1107   1.401       .  A
C1106      H1111   1.083       .  S
C1107      C1108   1.405       .  A
C1108      H1112   1.083       .  S
C1113      C1114   1.405       .  A
C1113      C1118   1.402       .  A
C1113      H1119   1.083       .  S
C1114      C1115   1.404       .  A
C1115      C1116   1.392       .  A
C1115      H1120   1.083       .  S
C1116      C1117   1.402       .  A
C1116      H1121   1.083       .  S
C1117      C1118   1.406       .  A
C1118      H1122   1.083       .  S
C1123      C1124   1.402       .  A
C1123      C1128   1.401       .  A
C1123      H1129   1.083       .  S
C1124      C1125   1.402       .  A
C1125      C1126   1.400       .  A
C1125      H1130   1.083       .  S
C1126      C1127   1.407       .  A
C1126      H1131   1.083       .  S
C1127      C1128   1.409       .  A
C1128      H1132   1.082       .  S
C1133      C1134   1.405       .  A
C1133      C1138   1.402       .  A
C1133      H1139   1.083       .  S
C1134      C1135   1.404       .  A
C1135      C1136   1.391       .  A
C1135      H1140   1.083       .  S
C1136      C1137   1.401       .  A
C1136      H1141   1.083       .  S
C1137      C1138   1.405       .  A
C1138      H1142   1.083       .  S
C1143      C1144   1.402       .  A
C1143      C1148   1.402       .  A
C1143      H1149   1.083       .  S
C1144      C1145   1.403       .  A
C1145      C1146   1.402       .  A
C1145      H1150   1.083       .  S
C1146      C1147   1.407       .  A
C1146      H1151   1.083       .  S
C1147      C1148   1.410       .  A
C1148      H2392   1.082       .  S
H1152      C2388   1.083       .  S
C1153      C1154   1.401       .  A
C1153      C1158   1.399       .  A
C1153      H1159   1.083       .  S
C1154      C1155   1.400       .  A
C1155      C1156   1.398       .  A
C1155      H1160   1.083       .  S
C1156      C1157   1.408       .  A
C1156      H2401   1.083       .  S
C1157      C1158   1.407       .  A
C1158      H1162   1.083       .  S
H1161      C2396   1.083       .  S
C1163      C1164   1.399       .  A
C1163      C1168   1.394       .  A
C1163      H1169   1.083       .  S
C1164      C1165   1.398       .  A
C1165      C1166   1.391       .  A
C1165      H1170   1.084       .  S
C1166      C1167   1.403       .  A
C1166      H1171   1.083       .  S
C1167      C1168   1.404       .  A
C1168      H1172   1.083       .  S
C1173      C1174   1.404       .  A
C1173      C1178   1.400       .  A
C1173      H1179   1.083       .  S
C1174      C1175   1.403       .  A
C1175      C1176   1.392       .  A
C1175      H1180   1.083       .  S
C1176      C1177   1.404       .  A
C1176      H1181   1.083       .  S
C1177      C1178   1.405       .  A
C1178      H1182   1.083       .  S
C1183      C1184   1.403       .  A
C1183      C1188   1.404       .  A
C1183      H1189   1.083       .  S
C1184      C1185   1.403       .  A
C1185      C1186   1.400       .  A
C1185      H1190   1.083       .  S
C1186      C1187   1.408       .  A
C1186      H1191   1.082       .  S
C1187      C1188   1.409       .  A
C1188      H1192   1.083       .  S
C1193      C1194   1.352       .  D
C1193      H1195   1.085       .  S
C1194      H1196   1.086       .  S
C1197      C1198   1.349       .  D
C1197      H1199   1.086       .  S
C1198      H1200   1.087       .  S
C1201      C1202   1.350       .  D
C1201      H1203   1.086       .  S
C1202      H1204   1.087       .  S
C1205      C1206   1.349       .  D
C1205      H1207   1.085       .  S
C1206      H1208   1.089       .  S
C1209      C1210   1.349       .  D
C1209      H1211   1.086       .  S
C1210      H1212   1.087       .  S
C1213      C1214   1.355       .  D
C1213      H1215   1.084       .  S
C1214      H1216   1.085       .  S
C1217      C1218   1.346       .  D
C1217      H1219   1.086       .  S
C1218      H1220   1.088       .  S
C1221      C1222   1.354       .  D
C1221      H1223   1.085       .  S
C1222      H1224   1.084       .  S
C1225      C1226   1.350       .  D
C1225      H1227   1.086       .  S
C1226      H1228   1.087       .  S
C1229      C1230   1.341       .  D
C1229      H1231   1.086       .  S
C1230      H1232   1.087       .  S
C1233      C1234   1.349       .  D
C1233      H1235   1.087       .  S
C1234      H1236   1.086       .  S
C1237      C1238   1.348       .  D
C1237      H1239   1.086       .  S
C1238      H1240   1.086       .  S
O1241     Ni1247   1.957       .  S
O1241      C1262   1.280       .  A
O1242     Ni1265   1.908       .  S
O1242      C1251   1.267       .  A
O1243     Ni1247   1.920       .  S
O1243     Ni1265   1.901   1_554  S
O1243     Ni1259   1.914       .  S
O1243      H1266   0.967       .  S
C1244      O1261   1.275       .  A
C1244      O1253   1.273       .  A
C1244      C1838   1.476       .  S
O1245     Ni1264   1.928       .  S
O1245      C1251   1.270       .  A
O1246     Ni1264   1.903   1_554  S
O1246      C1248   1.267       .  A
Ni1247     O1250   1.940       .  S
Ni1247     O1252   1.916   1_554  S
C1248      O1258   1.275       .  A
C1248      C1842   1.484       .  S
O1249     Ni1265   1.918   1_554  S
O1249      C1255   1.277       .  A
O1250      C1255   1.280       .  A
C1251      C1857   1.476       .  S
O1252      C1254   1.271       .  A
O1253     Ni1264   1.919       .  S
C1254      O1260   1.273       .  A
C1254      C1845   1.481       .  S
C1255      C1853   1.480       .  S
H1256      O1257   0.968       .  S
O1257     Ni1265   1.917       .  S
O1257     Ni1259   1.912   1_556  S
O1257     Ni1264   1.921       .  S
O1258     Ni1259   1.942       .  S
Ni1259     O1263   1.898       .  S
Ni1259     O1261   1.929   1_554  S
O1260     Ni1265   1.934       .  S
C1262      O1263   1.265       .  A
C1262      C1850   1.482       .  S
O1267     Ni1273   1.925       .  S
O1267      C1288   1.269       .  A
O1268     Ni1291   1.906       .  S
O1268      C1277   1.267       .  A
O1269     Ni1273   1.921       .  S
O1269     Ni1291   1.915       .  S
O1269     Ni1285   1.915       .  S
O1269      H1292   0.967       .  S
C1270      O1287   1.275       .  A
C1270      O1279   1.280       .  A
C1270      C1822   1.483       .  S
O1271     Ni1290   1.959       .  S
O1271      C1277   1.280       .  A
O1272     Ni1290   1.916       .  S
O1272      C1274   1.271       .  A
Ni1273     O1276   1.922       .  S
Ni1273     O1278   1.893       .  S
C1274      O1284   1.271       .  A
C1274      C1817   1.477       .  S
O1275     Ni1291   1.922       .  S
O1275      C1281   1.273       .  A
O1276      C1281   1.273       .  A
C1277      C1813   1.490       .  S
O1278      C1280   1.266       .  A
O1279     Ni1290   1.941       .  S
C1280      O1286   1.276       .  A
C1280      C1833   1.480       .  S
C1281      C1826   1.475       .  S
H1282      O1283   0.967       .  S
O1283     Ni1291   1.914       .  S
O1283     Ni1285   1.908       .  S
O1283     Ni1290   1.925       .  S
O1284     Ni1285   1.928       .  S
Ni1285     O1289   1.910       .  S
Ni1285     O1287   1.919       .  S
O1286     Ni1291   1.946       .  S
C1288      O1289   1.268       .  A
C1288      C1830   1.476       .  S
O1293     Ni1301   1.913       .  S
O1293      C1303   1.280       .  A
O1294     Ni1921   1.917       .  S
O1294      C1304   1.280       .  A
O1295     Ni1301   1.925       .  S
O1295      C1305   1.282       .  A
O1296     Ni1921   1.925       .  S
O1296      C1306   1.282       .  A
O1297     Ni1922   1.914       .  S
O1297      C1306   1.280       .  A
O1298     Ni1302   1.921       .  S
O1298      C1305   1.281       .  A
O1299     Ni1922   1.900       .  S
O1299      C1304   1.277       .  A
O1300     Ni1302   1.903       .  S
O1300      C1303   1.280       .  A
Ni1301     O1914   1.914   1_545  S
Ni1301     O1916   1.926   1_545  S
Ni1301    Ni1302   2.393       .  S
Ni1302     O1917   1.915   1_545  S
Ni1302     O1919   1.901   1_545  S
C1303      C1797   1.467       .  S
C1304      C1784   1.453       .  S
C1305      C1774   1.472       .  S
C1306      C1804   1.469       .  S
O1307     Ni1315   1.904       .  S
O1307      C1317   1.279       .  A
O1308     Ni1315   1.904       .  S
O1308      C1318   1.279       .  A
O1309     Ni1315   1.926       .  S
O1309      C1319   1.282       .  A
O1310     Ni1315   1.926       .  S
O1310      C1320   1.283       .  A
O1311     Ni1316   1.928       .  S
O1311      C1320   1.282       .  A
O1312     Ni1316   1.928       .  S
O1312      C1319   1.282       .  A
O1313     Ni1316   1.935       .  S
O1313      C1318   1.284       .  A
O1314     Ni1316   1.930       .  S
O1314      C1317   1.284       .  A
Ni1315    Ni1316   2.386       .  S
C1317      C1754   1.476       .  S
C1318      C1734   1.480       .  S
C1319      C1764   1.478       .  S
C1320      C1744   1.479       .  S
O1321     Ni1329   1.896       .  S
O1321      C1331   1.278       .  A
O1322      C1332   1.279       .  A
O1323      C1333   1.282       .  A
O1324     Ni1329   1.914       .  S
O1324      C1334   1.280       .  A
O1325     Ni1330   1.923       .  S
O1325      C1334   1.281       .  A
O1326      C1333   1.282       .  A
O1327      C1332   1.282       .  A
O1328     Ni1330   1.926       .  S
O1328      C1331   1.283       .  A
Ni1329    Ni1330   2.391       .  S
C1331      C1707   1.469       .  S
C1332      C1724   1.471       .  S
C1333      C1694   1.479       .  S
C1334      C1714   1.467       .  S
C1335      C1814   1.487       .  S
C1335      C1340   1.402       .  A
C1336      C1689   1.497       .  S
C1336      C1337   1.418       .  A
C1337      C1338   1.403       .  A
C1337      H1342   1.084       .  S
C1338      C1767   1.501       .  S
C1339      C1794   1.472       .  S
C1339      C1340   1.401       .  A
C1340      H1341   1.085       .  S
C1343      C1821   1.494       .  S
C1343      C1964   1.420   1_545  A
C1343      C1348   1.409       .  A
C1344      C1686   1.496       .  S
C1344      C1963   1.420       .  A
C1344      C1345   1.412       .  A
C1345      C1346   1.405       .  A
C1345      H1350   1.083       .  S
C1346      C1717   1.491       .  S
C1346      C1967   1.416       .  A
C1347      C1757   1.485       .  S
C1347      C1966   1.415   1_545  A
C1347      C1348   1.402       .  A
C1348      H1349   1.084       .  S
C1351      C1681   1.497       .  S
C1351      C1352   1.421       .  A
C1351      C1356   1.407       .  A
C1352      C1858   1.489       .  S
C1352      C1353   1.411       .  A
C1353      C1354   1.400       .  A
C1353      H1358   1.083       .  S
C1354      C1697   1.489       .  S
C1354      C1355   1.413       .  A
C1355      C1787   1.478       .  S
C1355      C1356   1.396       .  A
C1356      H1357   1.079       .  S
C1359      C1677   1.488       .  S
C1359      C1360   1.423       .  A
C1359      C1364   1.408       .  A
C1360      C1834   1.498       .  S
C1360      C1361   1.408       .  A
C1361      C1362   1.400       .  A
C1361      H1366   1.081       .  S
C1362      C1727   1.476       .  S
C1362      C1363   1.414       .  A
C1363      C1807   1.490       .  S
C1363      C1364   1.396       .  A
C1364      H1365   1.084       .  S
C1367      C1674   1.480       .  S
C1367      C1988   1.416       .  A
C1367      C1372   1.402       .  A
C1368      C1837   1.491       .  S
C1368      C1987   1.416   1_545  A
C1368      C1369   1.415       .  A
C1369      C1370   1.404       .  A
C1369      H1374   1.084       .  S
C1370      C1747   1.504       .  S
C1370      C1991   1.418   1_545  A
C1371      C1704   1.473       .  S
C1371      C1990   1.417       .  A
C1371      C1372   1.399       .  A
C1372      H1373   1.085       .  S
C1375      C1846   1.496       .  S
C1375      C1380   1.414       .  A
C1376      C1669   1.496       .  S
C1376      C1377   1.410       .  A
C1377      C1378   1.401       .  A
C1377      H1382   1.084       .  S
C1378      C1737   1.487       .  S
C1379      C1777   1.494       .  S
C1379      C1380   1.404       .  A
C1380      H1381   1.083       .  S
O1383     Ni1389   1.962       .  S
O1383      C1404   1.282       .  A
O1384     Ni1407   1.908       .  S
O1384      C1393   1.267       .  A
O1385     Ni1389   1.923       .  S
O1385     Ni1407   1.905       .  S
O1385     Ni1401   1.923       .  S
O1385      H1408   0.966       .  S
C1386      O1403   1.278       .  A
C1386      O1395   1.274       .  A
C1386      C1690   1.480       .  S
O1387     Ni1406   1.924       .  S
O1387      C1393   1.268       .  A
O1388     Ni1406   1.901       .  S
O1388      C1390   1.267       .  A
Ni1389     O1392   1.950       .  S
Ni1389     O1394   1.920       .  S
C1390      O1400   1.274       .  A
C1390      C1658   1.483       .  S
O1391     Ni1407   1.917       .  S
O1391      C1397   1.275       .  A
O1392      C1397   1.281       .  A
C1393      C1678   1.474       .  S
O1394      C1396   1.272       .  A
O1395     Ni1406   1.916       .  S
C1396      O1402   1.272       .  A
C1396      C1685   1.480       .  S
C1397      C1666   1.486       .  S
H1398      O1399   0.968       .  S
O1399     Ni1407   1.913       .  S
O1399     Ni1401   1.909       .  S
O1399     Ni1406   1.917       .  S
O1400     Ni1401   1.940       .  S
Ni1401     O1405   1.901       .  S
Ni1401     O1403   1.939       .  S
O1402     Ni1407   1.930       .  S
C1404      O1405   1.267       .  A
C1404      C1661   1.487       .  S
O1409     Ni1415   1.921       .  S
O1409      C1430   1.267       .  A
O1410     Ni1433   1.900   1_556  S
O1410      C1419   1.266       .  A
O1411     Ni1415   1.918       .  S
O1411     Ni1433   1.908       .  S
O1411     Ni1427   1.914       .  S
O1411      H1434   0.967       .  S
C1412      O1429   1.274       .  A
C1412      O1421   1.281       .  A
C1412      C1670   1.483       .  S
O1413     Ni1432   1.956       .  S
O1413      C1419   1.281       .  A
O1414     Ni1432   1.915   1_554  S
O1414      C1416   1.271       .  A
Ni1415     O1418   1.913       .  S
Ni1415     O1420   1.898   1_554  S
C1416      O1426   1.272       .  A
C1416      C1650   1.478       .  S
O1417     Ni1433   1.935       .  S
O1417      C1423   1.278       .  A
O1418      C1423   1.273       .  A
C1419      C1673   1.484       .  S
O1420      C1422   1.265       .  A
O1421     Ni1432   1.948       .  S
C1422      O1428   1.272       .  A
C1422      C1682   1.474       .  S
C1423      C1654   1.476       .  S
H1424      O1425   0.966       .  S
O1425     Ni1433   1.920   1_556  S
O1425     Ni1427   1.901   1_556  S
O1425     Ni1432   1.918       .  S
O1426     Ni1427   1.931       .  S
Ni1427     O1431   1.907       .  S
Ni1427     O1429   1.913   1_554  S
O1428     Ni1433   1.929   1_556  S
C1430      O1431   1.266       .  A
C1430      C1645   1.471       .  S
O1435     Ni1443   1.916       .  S
O1435      C1445   1.279       .  A
O1436      C1446   1.281       .  A
O1437      C1447   1.282       .  A
O1438     Ni1443   1.922       .  S
O1438      C1448   1.281       .  A
O1439     Ni1444   1.909       .  S
O1439      C1448   1.279       .  A
O1440      C1447   1.281       .  A
O1441      C1446   1.280       .  A
O1442     Ni1444   1.903       .  S
O1442      C1445   1.278       .  A
Ni1443    Ni1444   2.393       .  S
C1445      C1619   1.454       .  S
C1446      C1626   1.471       .  S
C1447      C1636   1.471       .  S
C1448      C1606   1.464       .  S
O1449     Ni1457   1.920       .  S
O1449      C1459   1.283       .  A
O1450     Ni1457   1.913       .  S
O1450      C1460   1.280       .  A
O1451     Ni1457   1.918       .  S
O1451      C1461   1.282       .  A
O1452     Ni1457   1.911       .  S
O1452      C1462   1.279       .  A
O1453     Ni1458   1.935       .  S
O1453      C1462   1.284       .  A
O1454     Ni1458   1.936       .  S
O1454      C1461   1.285       .  A
O1455     Ni1458   1.921       .  S
O1455      C1460   1.280       .  A
O1456     Ni1458   1.917       .  S
O1456      C1459   1.281       .  A
Ni1457    Ni1458   2.389       .  S
C1459      C1586   1.481       .  S
C1460      C1576   1.464       .  S
C1461      C1599   1.490       .  S
C1462      C1566   1.474       .  S
C1463      C1818   1.492       .  S
C1463      C2084   1.418   1_545  A
C1463      C1468   1.410       .  A
C1464      C1665   1.500       .  S
C1464      C2083   1.420       .  A
C1464      C1465   1.411       .  A
C1465      C1466   1.406       .  A
C1465      H1470   1.083       .  S
C1466      C1589   1.491       .  S
C1466      C2087   1.417       .  A
C1467      C1609   1.489       .  S
C1467      C2086   1.418   1_545  A
C1467      C1468   1.403       .  A
C1468      H1469   1.082       .  S
O1471     Ni1479   1.915       .  S
O1471      C1481   1.281       .  A
O1472     Ni2099   1.922   1_545  S
O1472      C1482   1.282       .  A
O1473     Ni2099   1.916   1_545  S
O1473      C1483   1.279       .  A
O1474     Ni1479   1.913       .  S
O1474      C1484   1.280       .  A
O1475     Ni1480   1.919       .  S
O1475      C1484   1.283       .  A
O1476     Ni2100   1.919   1_545  S
O1476      C1483   1.282       .  A
O1477     Ni2100   1.892   1_545  S
O1477      C1482   1.277       .  A
O1478     Ni1480   1.906       .  S
O1478      C1481   1.280       .  A
Ni1479     O2092   1.920       .  S
Ni1479     O2093   1.915       .  S
Ni1479    Ni1480   2.391       .  S
Ni1480     O2096   1.918       .  S
Ni1480     O2097   1.898       .  S
C1481      C1529   1.471       .  S
C1482      C1556   1.464       .  S
C1483      C1546   1.466       .  S
C1484      C1536   1.476       .  S
C1485      C1849   1.481       .  S
C1485      C2106   1.417   1_545  A
C1485      C1490   1.402       .  A
C1486      C1653   1.496       .  S
C1486      C2105   1.417       .  A
C1486      C1487   1.418       .  A
C1487      C1488   1.402       .  A
C1487      H1492   1.082       .  S
C1488      C1596   1.501       .  S
C1488      C2109   1.416       .  A
C1489      C1616   1.478       .  S
C1489      C2108   1.415   1_545  A
C1489      C1490   1.400       .  A
C1490      H1491   1.085       .  S
C1493      C1829   1.488       .  S
C1493      C1494   1.422       .  A
C1493      C1498   1.408       .  A
C1494      C1657   1.501       .  S
C1494      C1495   1.409       .  A
C1495      C1496   1.402       .  A
C1495      H1500   1.081       .  S
C1496      C1629   1.479       .  S
C1496      C1497   1.416       .  A
C1497      C1549   1.491       .  S
C1497      C1498   1.398       .  A
C1498      H1499   1.084       .  S
C1501      C1841   1.502       .  S
C1501      C1502   1.422       .  A
C1501      C1506   1.408       .  A
C1502      C1646   1.485       .  S
C1502      C1503   1.410       .  A
C1503      C1504   1.397       .  A
C1503      H1508   1.083       .  S
C1504      C1639   1.496       .  S
C1504      C1505   1.415       .  A
C1505      C1559   1.473       .  S
C1505      C1506   1.402       .  A
C1506      H1507   1.081       .  S
C1509      C1825   1.488       .  S
C1509      C1514   1.412       .  A
C1510      C1662   1.484       .  S
C1510      C1511   1.402       .  A
C1511      C1512   1.400       .  A
C1511      H1516   1.085       .  S
C1512      C1526   1.474       .  S
C1513      C1569   1.495       .  S
C1513      C1514   1.400       .  A
C1514      H1515   1.084       .  S
C1517      C1649   1.492       .  S
C1517      C1522   1.412       .  A
C1518      C1854   1.491       .  S
C1518      C1519   1.408       .  A
C1519      C1520   1.397       .  A
C1519      H1524   1.085       .  S
C1520      C1579   1.483       .  S
C1521      C1539   1.485       .  S
C1521      C1522   1.405       .  A
C1522      H1523   1.084       .  S
C1525      C1526   1.402       .  A
C1525      C1530   1.397       .  A
C1525      H1531   1.083       .  S
C1526      C1527   1.402       .  A
C1527      C1528   1.392       .  A
C1528      C1529   1.405       .  A
C1528      H1533   1.083       .  S
C1529      C1530   1.405       .  A
C1530      H1534   1.083       .  S
C1535      C1536   1.404       .  A
C1535      C1540   1.396       .  A
C1535      H1541   1.083       .  S
C1536      C1537   1.406       .  A
C1537      C1538   1.399       .  A
C1537      H1542   1.083       .  S
C1538      C1539   1.402       .  A
C1538      H1543   1.083       .  S
C1539      C1540   1.406       .  A
C1545      C1546   1.401       .  A
C1545      C1550   1.398       .  A
C1545      H1551   1.083       .  S
C1546      C1547   1.401       .  A
C1547      C1548   1.399       .  A
C1547      H1552   1.083       .  S
C1548      C1549   1.407       .  A
C1548      H1553   1.083       .  S
C1549      C1550   1.407       .  A
C1550      H1554   1.083       .  S
C1555      C1556   1.402       .  A
C1555      C1560   1.398       .  A
C1555      H1561   1.083       .  S
C1556      C1557   1.404       .  A
C1557      C1558   1.388       .  A
C1557      H1562   1.083       .  S
C1558      C1559   1.400       .  A
C1558      H1563   1.083       .  S
C1559      C1560   1.404       .  A
C1560      H1564   1.083       .  S
C1565      C1566   1.402       .  A
C1565      C1570   1.401       .  A
C1565      H1571   1.083       .  S
C1566      C1567   1.403       .  A
C1567      C1568   1.400       .  A
C1567      H1572   1.083       .  S
C1568      C1569   1.407       .  A
C1568      H1573   1.083       .  S
C1569      C1570   1.407       .  A
C1570      H1574   1.083       .  S
C1575      C1576   1.401       .  A
C1575      C1580   1.398       .  A
C1575      H1581   1.083       .  S
C1576      C1577   1.401       .  A
C1577      C1578   1.398       .  A
C1577      H1582   1.083       .  S
C1578      C1579   1.405       .  A
C1578      H1583   1.083       .  S
C1579      C1580   1.404       .  A
C1580      H1584   1.083       .  S
C1585      C1586   1.407       .  A
C1585      C1590   1.400       .  A
C1585      H1591   1.083       .  S
C1586      C1587   1.404       .  A
C1587      C1588   1.396       .  A
C1587      H1592   1.083       .  S
C1588      C1589   1.406       .  A
C1588      H2213   1.083       .  S
C1589      C1590   1.405       .  A
C1590      H1594   1.083       .  S
H1593      C2208   1.083   1_545  S
C1595      C1596   1.406       .  A
C1595      C1600   1.398       .  A
C1595      H1601   1.083       .  S
C1596      C1597   1.408       .  A
C1597      C1598   1.407       .  A
C1597      H1602   1.083       .  S
C1598      C1599   1.408       .  A
C1598      H1603   1.083       .  S
C1599      C1600   1.406       .  A
C1600      H1604   1.083       .  S
C1605      C1606   1.401       .  A
C1605      C1610   1.399       .  A
C1605      H1611   1.083       .  S
C1606      C1607   1.400       .  A
C1607      C1608   1.396       .  A
C1607      H1612   1.084       .  S
C1608      C1609   1.408       .  A
C1608      H2233   1.083       .  S
C1609      C1610   1.406       .  A
C1610      H1614   1.083       .  S
H1613      C2228   1.083       .  S
C1615      C1616   1.405       .  A
C1615      C1620   1.396       .  A
C1615      H1621   1.083       .  S
C1616      C1617   1.404       .  A
C1617      C1618   1.393       .  A
C1617      H1622   1.083       .  S
C1618      C1619   1.398       .  A
C1618      H1623   1.084       .  S
C1619      C1620   1.400       .  A
C1620      H1624   1.084       .  S
C1625      C1626   1.404       .  A
C1625      C1630   1.397       .  A
C1625      H1631   1.083       .  S
C1626      C1627   1.404       .  A
C1627      C1628   1.392       .  A
C1627      H1632   1.083       .  S
C1628      C1629   1.403       .  A
C1628      H1633   1.083       .  S
C1629      C1630   1.403       .  A
C1630      H1634   1.083       .  S
C1635      C1636   1.401       .  A
C1635      C1640   1.400       .  A
C1635      H1641   1.083       .  S
C1636      C1637   1.402       .  A
C1637      C1638   1.402       .  A
C1637      H1642   1.083       .  S
C1638      C1639   1.408       .  A
C1638      H1643   1.083       .  S
C1639      C1640   1.408       .  A
C1640      H1644   1.083       .  S
C1645      C1646   1.349       .  D
C1645      H1647   1.086       .  S
C1646      H1648   1.086       .  S
C1649      C1650   1.349       .  D
C1649      H1651   1.087       .  S
C1650      H1652   1.086       .  S
C1653      C1654   1.347       .  D
C1653      H1655   1.086       .  S
C1654      H1656   1.087       .  S
C1657      C1658   1.355       .  D
C1657      H1659   1.085       .  S
C1658      H1660   1.084       .  S
C1661      C1662   1.342       .  D
C1661      H1663   1.087       .  S
C1662      H1664   1.087       .  S
C1665      C1666   1.350       .  D
C1665      H1667   1.086       .  S
C1666      H1668   1.087       .  S
C1669      C1670   1.349       .  D
C1669      H1671   1.086       .  S
C1670      H1672   1.087       .  S
C1673      C1674   1.341       .  D
C1673      H1675   1.087       .  S
C1674      H1676   1.087       .  S
C1677      C1678   1.350       .  D
C1677      H1679   1.086       .  S
C1678      H1680   1.086       .  S
C1681      C1682   1.352       .  D
C1681      H1683   1.086       .  S
C1682      H1684   1.082       .  S
C1685      C1686   1.350       .  D
C1685      H1687   1.086       .  S
C1686      H1688   1.087       .  S
C1689      C1690   1.350       .  D
C1689      H1691   1.086       .  S
C1690      H1692   1.088       .  S
C1693      C1694   1.406       .  A
C1693      C1698   1.402       .  A
C1693      H1699   1.083       .  S
C1694      C1695   1.404       .  A
C1695      C1696   1.395       .  A
C1695      H1700   1.083       .  S
C1696      C1697   1.405       .  A
C1696      H1701   1.083       .  S
C1697      C1698   1.405       .  A
C1698      H1702   1.083       .  S
C1703      C1704   1.404       .  A
C1703      C1708   1.400       .  A
C1703      H1709   1.083       .  S
C1704      C1705   1.400       .  A
C1705      C1706   1.389       .  A
C1705      H1710   1.084       .  S
C1706      C1707   1.404       .  A
C1706      H1711   1.083       .  S
C1707      C1708   1.404       .  A
C1708      H1712   1.083       .  S
C1713      C1714   1.399       .  A
C1713      C1718   1.398       .  A
C1713      H1719   1.083       .  S
C1714      C1715   1.403       .  A
C1715      C1716   1.401       .  A
C1715      H1720   1.083       .  S
C1716      C1717   1.406       .  A
C1716      H1721   1.083       .  S
C1717      C1718   1.408       .  A
C1718      H1722   1.083       .  S
C1723      C1724   1.404       .  A
C1723      C1728   1.398       .  A
C1723      H1729   1.083       .  S
C1724      C1725   1.405       .  A
C1725      C1726   1.391       .  A
C1725      H1730   1.083       .  S
C1726      C1727   1.401       .  A
C1726      H1731   1.083       .  S
C1727      C1728   1.403       .  A
C1728      H1732   1.083       .  S
C1733      C1734   1.406       .  A
C1733      C1738   1.406       .  A
C1733      H1739   1.083       .  S
C1734      C1735   1.405       .  A
C1735      C1736   1.392       .  A
C1735      H1740   1.083       .  S
C1736      C1737   1.401       .  A
C1736      H1741   1.083       .  S
C1737      C1738   1.408       .  A
C1738      H1742   1.083       .  S
C1743      C1744   1.403       .  A
C1743      C1748   1.403       .  A
C1743      H1749   1.083       .  S
C1744      C1745   1.403       .  A
C1745      C1746   1.403       .  A
C1745      H1750   1.083       .  S
C1746      C1747   1.409       .  A
C1746      H1751   1.083       .  S
C1747      C1748   1.410       .  A
C1748      H1752   1.082       .  S
C1753      C1754   1.405       .  A
C1753      C1758   1.401       .  A
C1753      H1759   1.083       .  S
C1754      C1755   1.405       .  A
C1755      C1756   1.394       .  A
C1755      H1760   1.083       .  S
C1756      C1757   1.403       .  A
C1756      H1761   1.083       .  S
C1757      C1758   1.405       .  A
C1758      H1762   1.083       .  S
C1763      C1764   1.402       .  A
C1763      C1768   1.402       .  A
C1763      H1769   1.083       .  S
C1764      C1765   1.404       .  A
C1765      C1766   1.403       .  A
C1765      H1770   1.083       .  S
C1766      C1767   1.408       .  A
C1766      H1771   1.083       .  S
C1767      C1768   1.409       .  A
C1773      C1774   1.403       .  A
C1773      C1778   1.402       .  A
C1773      H1779   1.083       .  S
C1774      C1775   1.401       .  A
C1775      C1776   1.400       .  A
C1775      H1780   1.083       .  S
C1776      C1777   1.408       .  A
C1777      C1778   1.406       .  A
C1778      H1782   1.083       .  S
C1783      C1784   1.399       .  A
C1783      C1788   1.396       .  A
C1783      H1789   1.083       .  S
C1784      C1785   1.399       .  A
C1785      C1786   1.392       .  A
C1785      H1790   1.084       .  S
C1786      C1787   1.404       .  A
C1786      H1791   1.083       .  S
C1787      C1788   1.405       .  A
C1788      H1792   1.083       .  S
C1793      C1794   1.402       .  A
C1793      C1798   1.397       .  A
C1793      H1799   1.083       .  S
C1794      C1795   1.401       .  A
C1795      C1796   1.389       .  A
C1795      H1800   1.083       .  S
C1796      C1797   1.403       .  A
C1796      H1801   1.083       .  S
C1797      C1798   1.404       .  A
C1798      H1802   1.083       .  S
C1803      C1804   1.402       .  A
C1803      C1808   1.400       .  A
C1803      H1809   1.083       .  S
C1804      C1805   1.401       .  A
C1805      C1806   1.398       .  A
C1805      H1810   1.083       .  S
C1806      C1807   1.407       .  A
C1806      H1811   1.083       .  S
C1807      C1808   1.406       .  A
C1808      H1812   1.083       .  S
C1813      C1814   1.344       .  D
C1813      H1815   1.087       .  S
C1814      H1816   1.086       .  S
C1817      C1818   1.349       .  D
C1817      H1819   1.086       .  S
C1818      H1820   1.087       .  S
C1821      C1822   1.349       .  D
C1821      H1823   1.086       .  S
C1822      H1824   1.087       .  S
C1825      C1826   1.347       .  D
C1825      H1827   1.086       .  S
C1826      H1828   1.089       .  S
C1829      C1830   1.351       .  D
C1829      H1831   1.086       .  S
C1830      H1832   1.086       .  S
C1833      C1834   1.355       .  D
C1833      H1835   1.083       .  S
C1834      H1836   1.085       .  S
C1837      C1838   1.347       .  D
C1837      H1839   1.086       .  S
C1838      H1840   1.088       .  S
C1841      C1842   1.355       .  D
C1841      H1843   1.086       .  S
C1842      H1844   1.084       .  S
C1845      C1846   1.353       .  D
C1845      H1847   1.086       .  S
C1846      H1848   1.087       .  S
C1849      C1850   1.340       .  D
C1849      H1851   1.086       .  S
C1850      H1852   1.087       .  S
C1853      C1854   1.349       .  D
C1853      H1855   1.087       .  S
C1854      H1856   1.086       .  S
C1857      C1858   1.349       .  D
C1857      H1859   1.086       .  S
C1858      H1860   1.086       .  S
O1861     Ni1867   1.957       .  S
O1861      C1882   1.280       .  A
O1862     Ni1885   1.909       .  S
O1862      C1871   1.267       .  A
O1863     Ni1867   1.922       .  S
O1863     Ni1885   1.904   1_554  S
O1863     Ni1879   1.916       .  S
O1863      H1886   0.967       .  S
C1864      O1881   1.276       .  A
C1864      O1873   1.274       .  A
C1864      C2458   1.474       .  S
O1865     Ni1884   1.927       .  S
O1865      C1871   1.269       .  A
O1866     Ni1884   1.904   1_554  S
O1866      C1868   1.267       .  A
Ni1867     O1870   1.942       .  S
Ni1867     O1872   1.917   1_554  S
C1868      O1878   1.273       .  A
C1868      C2462   1.482       .  S
O1869     Ni1885   1.910   1_554  S
O1869      C1875   1.273       .  A
O1870      C1875   1.280       .  A
C1871      C2477   1.476       .  S
O1872      C1874   1.271       .  A
O1873     Ni1884   1.916       .  S
C1874      O1880   1.273       .  A
C1874      C2465   1.480       .  S
C1875      C2473   1.476       .  S
H1876      O1877   0.968       .  S
O1877     Ni1885   1.912       .  S
O1877     Ni1879   1.912   1_556  S
O1877     Ni1884   1.920       .  S
O1878     Ni1879   1.936       .  S
Ni1879     O1883   1.902       .  S
Ni1879     O1881   1.929   1_554  S
O1880     Ni1885   1.933       .  S
C1882      O1883   1.266       .  A
C1882      C2470   1.483       .  S
O1887     Ni1893   1.926       .  S
O1887      C1908   1.269       .  A
O1888     Ni1911   1.905       .  S
O1888      C1897   1.266       .  A
O1889     Ni1893   1.922       .  S
O1889     Ni1911   1.917       .  S
O1889     Ni1905   1.917       .  S
O1889      H1912   0.967       .  S
C1890      O1907   1.275       .  A
C1890      O1899   1.279       .  A
C1890      C2442   1.479       .  S
O1891     Ni1910   1.954       .  S
O1891      C1897   1.279       .  A
O1892     Ni1910   1.914       .  S
O1892      C1894   1.271       .  A
Ni1893     O1896   1.919       .  S
Ni1893     O1898   1.898       .  S
C1894      O1904   1.271       .  A
C1894      C2437   1.475       .  S
O1895     Ni1911   1.927       .  S
O1895      C1901   1.273       .  A
O1896      C1901   1.272       .  A
C1897      C2433   1.487       .  S
O1898      C1900   1.267       .  A
O1899     Ni1910   1.937       .  S
C1900      O1906   1.275       .  A
C1900      C2453   1.478       .  S
C1901      C2446   1.476       .  S
H1902      O1903   0.967       .  S
O1903     Ni1911   1.915       .  S
O1903     Ni1905   1.906       .  S
O1903     Ni1910   1.923       .  S
O1904     Ni1905   1.927       .  S
Ni1905     O1909   1.907       .  S
Ni1905     O1907   1.917       .  S
O1906     Ni1911   1.941       .  S
C1908      O1909   1.266       .  A
C1908      C2450   1.475       .  S
O1913     Ni1921   1.916       .  S
O1913      C1923   1.282       .  A
O1914      C1924   1.279       .  A
O1915     Ni1921   1.926       .  S
O1915      C1925   1.282       .  A
O1916      C1926   1.282       .  A
O1917      C1926   1.280       .  A
O1918     Ni1922   1.922       .  S
O1918      C1925   1.281       .  A
O1919      C1924   1.277       .  A
O1920     Ni1922   1.904       .  S
O1920      C1923   1.279       .  A
Ni1921    Ni1922   2.393       .  S
C1923      C2417   1.470       .  S
C1924      C2404   1.452       .  S
C1925      C2394   1.473       .  S
C1926      C2424   1.469       .  S
O1927     Ni1935   1.905       .  S
O1927      C1937   1.280       .  A
O1928     Ni1935   1.909       .  S
O1928      C1938   1.280       .  A
O1929     Ni1935   1.923       .  S
O1929      C1939   1.282       .  A
O1930     Ni1935   1.924       .  S
O1930      C1940   1.282       .  A
O1931     Ni1936   1.925       .  S
O1931      C1940   1.282       .  A
O1932     Ni1936   1.923       .  S
O1932      C1939   1.281       .  A
O1933     Ni1936   1.930       .  S
O1933      C1938   1.284       .  A
O1934     Ni1936   1.927       .  S
O1934      C1937   1.283       .  A
Ni1935    Ni1936   2.388       .  S
C1937      C2374   1.476       .  S
C1938      C2354   1.480       .  S
C1939      C2384   1.472       .  S
C1940      C2364   1.475       .  S
O1941     Ni1949   1.896       .  S
O1941      C1951   1.278       .  A
O1942      C1952   1.278       .  A
O1943      C1953   1.282       .  A
O1944     Ni1949   1.913       .  S
O1944      C1954   1.279       .  A
O1945     Ni1950   1.927       .  S
O1945      C1954   1.282       .  A
O1946      C1953   1.282       .  A
O1947      C1952   1.283       .  A
O1948     Ni1950   1.927       .  S
O1948      C1951   1.283       .  A
Ni1949    Ni1950   2.390       .  S
C1951      C2327   1.470       .  S
C1952      C2344   1.473       .  S
C1953      C2314   1.479       .  S
C1954      C2334   1.469       .  S
C1955      C2434   1.484       .  S
C1955      C1960   1.402       .  A
C1956      C2309   1.498       .  S
C1956      C1957   1.417       .  A
C1957      C1958   1.399       .  A
C1957      H1962   1.084       .  S
C1958      C2387   1.495       .  S
C1959      C2414   1.474       .  S
C1959      C1960   1.401       .  A
C1960      H1961   1.085       .  S
C1963      C2441   1.491       .  S
C1963      C1968   1.408       .  A
C1964      C2306   1.493       .  S
C1964      C1965   1.412       .  A
C1965      C1966   1.403       .  A
C1965      H1970   1.083       .  S
C1966      C2337   1.490       .  S
C1967      C2377   1.484       .  S
C1967      C1968   1.398       .  A
C1968      H1969   1.084       .  S
C1971      C2301   1.500       .  S
C1971      C1972   1.422       .  A
C1971      C1976   1.408       .  A
C1972      C2478   1.489       .  S
C1972      C1973   1.411       .  A
C1973      C1974   1.399       .  A
C1973      H1978   1.083       .  S
C1974      C2317   1.490       .  S
C1974      C1975   1.413       .  A
C1975      C2407   1.478       .  S
C1975      C1976   1.398       .  A
C1976      H1977   1.080       .  S
C1979      C2297   1.487       .  S
C1979      C1980   1.420       .  A
C1979      C1984   1.407       .  A
C1980      C2454   1.497       .  S
C1980      C1981   1.409       .  A
C1981      C1982   1.401       .  A
C1981      H1986   1.082       .  S
C1982      C2347   1.478       .  S
C1982      C1983   1.416       .  A
C1983      C2427   1.492       .  S
C1983      C1984   1.398       .  A
C1984      H1985   1.084       .  S
C1987      C2294   1.482       .  S
C1987      C1992   1.401       .  A
C1988      C2457   1.491       .  S
C1988      C1989   1.415       .  A
C1989      C1990   1.401       .  A
C1989      H1994   1.084       .  S
C1990      C2367   1.500       .  S
C1991      C2324   1.474       .  S
C1991      C1992   1.400       .  A
C1992      H1993   1.085       .  S
C1995      C2466   1.496       .  S
C1995      C2000   1.413       .  A
C1996      C2289   1.496       .  S
C1996      C1997   1.411       .  A
C1997      C1998   1.404       .  A
C1997      H2002   1.084       .  S
C1998      C2357   1.488       .  S
C1999      C2397   1.498       .  S
C1999      C2000   1.407       .  A
C2000      H2001   1.082       .  S
O2003     Ni2009   1.961       .  S
O2003      C2024   1.281       .  A
O2004     Ni2027   1.909       .  S
O2004      C2013   1.267       .  A
O2005     Ni2009   1.923       .  S
O2005     Ni2027   1.906       .  S
O2005     Ni2021   1.920       .  S
O2005      H2028   0.966       .  S
C2006      O2023   1.277       .  A
C2006      O2015   1.275       .  A
C2006      C2310   1.478       .  S
O2007     Ni2026   1.925       .  S
O2007      C2013   1.269       .  A
O2008     Ni2026   1.900       .  S
O2008      C2010   1.266       .  A
Ni2009     O2012   1.948       .  S
Ni2009     O2014   1.916       .  S
C2010      O2020   1.273       .  A
C2010      C2278   1.480       .  S
O2011     Ni2027   1.914       .  S
O2011      C2017   1.274       .  A
O2012      C2017   1.281       .  A
C2013      C2298   1.474       .  S
O2014      C2016   1.271       .  A
O2015     Ni2026   1.918       .  S
C2016      O2022   1.272       .  A
C2016      C2305   1.479       .  S
C2017      C2286   1.484       .  S
H2018      O2019   0.969       .  S
O2019     Ni2027   1.912       .  S
O2019     Ni2021   1.907       .  S
O2019     Ni2026   1.917       .  S
O2020     Ni2021   1.937       .  S
Ni2021     O2025   1.897       .  S
Ni2021     O2023   1.934       .  S
O2022     Ni2027   1.931       .  S
C2024      O2025   1.265       .  A
C2024      C2281   1.484       .  S
O2029     Ni2035   1.921       .  S
O2029      C2050   1.267       .  A
O2030     Ni2053   1.902   1_556  S
O2030      C2039   1.267       .  A
O2031     Ni2035   1.917       .  S
O2031     Ni2053   1.906       .  S
O2031     Ni2047   1.915       .  S
O2031      H2054   0.967       .  S
C2032      O2049   1.275       .  A
C2032      O2041   1.281       .  A
C2032      C2290   1.485       .  S
O2033     Ni2052   1.955       .  S
O2033      C2039   1.281       .  A
O2034     Ni2052   1.919   1_554  S
O2034      C2036   1.272       .  A
Ni2035     O2038   1.911       .  S
Ni2035     O2040   1.902   1_554  S
C2036      O2046   1.274       .  A
C2036      C2270   1.483       .  S
O2037     Ni2053   1.942       .  S
O2037      C2043   1.280       .  A
O2038      C2043   1.274       .  A
C2039      C2293   1.484       .  S
O2040      C2042   1.266       .  A
O2041     Ni2052   1.947       .  S
C2042      O2048   1.272       .  A
C2042      C2302   1.478       .  S
C2043      C2274   1.478       .  S
H2044      O2045   0.966       .  S
O2045     Ni2053   1.923   1_556  S
O2045     Ni2047   1.901   1_556  S
O2045     Ni2052   1.917       .  S
O2046     Ni2047   1.937       .  S
Ni2047     O2051   1.905       .  S
Ni2047     O2049   1.918   1_554  S
O2048     Ni2053   1.932   1_556  S
C2050      O2051   1.266       .  A
C2050      C2265   1.469       .  S
O2055     Ni2063   1.917       .  S
O2055      C2065   1.280       .  A
O2056      C2066   1.281       .  A
O2057      C2067   1.282       .  A
O2058     Ni2063   1.928       .  S
O2058      C2068   1.282       .  A
O2059     Ni2064   1.913       .  S
O2059      C2068   1.280       .  A
O2060      C2067   1.281       .  A
O2061      C2066   1.279       .  A
O2062     Ni2064   1.903       .  S
O2062      C2065   1.278       .  A
Ni2063    Ni2064   2.393       .  S
C2065      C2239   1.455       .  S
C2066      C2246   1.468       .  S
C2067      C2256   1.471       .  S
C2068      C2226   1.469       .  S
O2069     Ni2077   1.922       .  S
O2069      C2079   1.283       .  A
O2070     Ni2077   1.912       .  S
O2070      C2080   1.280       .  A
O2071     Ni2077   1.922       .  S
O2071      C2081   1.283       .  A
O2072     Ni2077   1.914       .  S
O2072      C2082   1.280       .  A
O2073     Ni2078   1.934       .  S
O2073      C2082   1.284       .  A
O2074     Ni2078   1.932       .  S
O2074      C2081   1.284       .  A
O2075     Ni2078   1.921       .  S
O2075      C2080   1.280       .  A
O2076     Ni2078   1.915       .  S
O2076      C2079   1.281       .  A
Ni2077    Ni2078   2.389       .  S
C2079      C2206   1.482       .  S
C2080      C2196   1.463       .  S
C2081      C2219   1.490       .  S
C2082      C2186   1.475       .  S
C2083      C2438   1.491       .  S
C2083      C2088   1.411       .  A
C2084      C2285   1.497       .  S
C2084      C2085   1.410       .  A
C2085      C2086   1.404       .  A
C2085      H2090   1.083       .  S
C2086      C2209   1.491       .  S
C2087      C2229   1.492       .  S
C2087      C2088   1.401       .  A
C2088      H2089   1.083       .  S
O2091     Ni2099   1.917       .  S
O2091      C2101   1.282       .  A
O2092      C2102   1.282       .  A
O2093      C2103   1.279       .  A
O2094     Ni2099   1.916       .  S
O2094      C2104   1.281       .  A
O2095     Ni2100   1.920       .  S
O2095      C2104   1.283       .  A
O2096      C2103   1.281       .  A
O2097      C2102   1.278       .  A
O2098     Ni2100   1.903       .  S
O2098      C2101   1.279       .  A
Ni2099    Ni2100   2.391       .  S
C2101      C2149   1.471       .  S
C2102      C2176   1.467       .  S
C2103      C2166   1.464       .  S
C2104      C2156   1.477       .  S
C2105      C2469   1.484       .  S
C2105      C2110   1.402       .  A
C2106      C2273   1.498       .  S
C2106      C2107   1.418       .  A
C2107      C2108   1.403       .  A
C2107      H2112   1.083       .  S
C2108      C2216   1.499       .  S
C2109      C2236   1.476       .  S
C2109      C2110   1.401       .  A
C2110      H2111   1.085       .  S
C2113      C2449   1.487       .  S
C2113      C2114   1.422       .  A
C2113      C2118   1.408       .  A
C2114      C2277   1.497       .  S
C2114      C2115   1.408       .  A
C2115      C2116   1.399       .  A
C2115      H2120   1.082       .  S
C2116      C2249   1.475       .  S
C2116      C2117   1.413       .  A
C2117      C2169   1.488       .  S
C2117      C2118   1.397       .  A
C2118      H2119   1.083       .  S
C2121      C2461   1.500       .  S
C2121      C2122   1.419       .  A
C2121      C2126   1.409       .  A
C2122      C2266   1.483       .  S
C2122      C2123   1.408       .  A
C2123      C2124   1.396       .  A
C2123      H2128   1.084       .  S
C2124      C2259   1.495       .  S
C2124      C2125   1.416       .  A
C2125      C2179   1.475       .  S
C2125      C2126   1.403       .  A
C2126      H2127   1.082       .  S
C2129      C2445   1.491       .  S
C2129      C2134   1.414       .  A
C2130      C2282   1.481       .  S
C2130      C2131   1.403       .  A
C2131      C2132   1.399       .  A
C2131      H2136   1.085       .  S
C2132      C2146   1.475       .  S
C2133      C2189   1.497       .  S
C2133      C2134   1.401       .  A
C2134      H2135   1.084       .  S
C2137      C2269   1.497       .  S
C2137      C2142   1.412       .  A
C2138      C2474   1.489       .  S
C2138      C2139   1.406       .  A
C2139      C2140   1.396       .  A
C2139      H2144   1.084       .  S
C2140      C2199   1.484       .  S
C2141      C2159   1.486       .  S
C2141      C2142   1.405       .  A
C2142      H2143   1.083       .  S
C2145      C2146   1.402       .  A
C2145      C2150   1.397       .  A
C2145      H2151   1.083       .  S
C2146      C2147   1.402       .  A
C2147      C2148   1.391       .  A
C2148      C2149   1.405       .  A
C2148      H2153   1.083       .  S
C2149      C2150   1.405       .  A
C2150      H2154   1.083       .  S
C2155      C2156   1.403       .  A
C2155      C2160   1.395       .  A
C2155      H2161   1.083       .  S
C2156      C2157   1.407       .  A
C2157      C2158   1.400       .  A
C2157      H2162   1.083       .  S
C2158      C2159   1.403       .  A
C2158      H2163   1.083       .  S
C2159      C2160   1.406       .  A
C2165      C2166   1.400       .  A
C2165      C2170   1.397       .  A
C2165      H2171   1.083       .  S
C2166      C2167   1.402       .  A
C2167      C2168   1.398       .  A
C2167      H2172   1.083       .  S
C2168      C2169   1.405       .  A
C2168      H2173   1.083       .  S
C2169      C2170   1.407       .  A
C2170      H2174   1.083       .  S
C2175      C2176   1.403       .  A
C2175      C2180   1.397       .  A
C2175      H2181   1.083       .  S
C2176      C2177   1.404       .  A
C2177      C2178   1.390       .  A
C2177      H2182   1.083       .  S
C2178      C2179   1.402       .  A
C2178      H2183   1.083       .  S
C2179      C2180   1.403       .  A
C2180      H2184   1.083       .  S
C2185      C2186   1.403       .  A
C2185      C2190   1.403       .  A
C2185      H2191   1.083       .  S
C2186      C2187   1.403       .  A
C2187      C2188   1.399       .  A
C2187      H2192   1.083       .  S
C2188      C2189   1.407       .  A
C2188      H2193   1.082   1_655  S
C2189      C2190   1.408       .  A
C2190      H2194   1.083       .  S
C2195      C2196   1.401       .  A
C2195      C2200   1.399       .  A
C2195      H2201   1.083       .  S
C2196      C2197   1.401       .  A
C2197      C2198   1.396       .  A
C2197      H2202   1.083       .  S
C2198      C2199   1.405       .  A
C2198      H2203   1.083       .  S
C2199      C2200   1.405       .  A
C2200      H2204   1.083       .  S
C2205      C2206   1.407       .  A
C2205      C2210   1.398       .  A
C2205      H2211   1.083       .  S
C2206      C2207   1.405       .  A
C2207      C2208   1.398       .  A
C2207      H2212   1.083       .  S
C2208      C2209   1.407       .  A
C2209      C2210   1.403       .  A
C2210      H2214   1.083       .  S
C2215      C2216   1.407       .  A
C2215      C2220   1.400       .  A
C2215      H2221   1.083   1_565  S
C2216      C2217   1.407       .  A
C2217      C2218   1.406       .  A
C2217      H2222   1.083       .  S
C2218      C2219   1.408       .  A
C2218      H2223   1.083       .  S
C2219      C2220   1.406       .  A
C2220      H2224   1.083       .  S
C2225      C2226   1.404       .  A
C2225      C2230   1.402       .  A
C2225      H2231   1.083       .  S
C2226      C2227   1.400       .  A
C2227      C2228   1.397       .  A
C2227      H2232   1.083       .  S
C2228      C2229   1.407       .  A
C2229      C2230   1.406       .  A
C2230      H2234   1.083       .  S
C2235      C2236   1.404       .  A
C2235      C2240   1.396       .  A
C2235      H2241   1.083       .  S
C2236      C2237   1.404       .  A
C2237      C2238   1.393       .  A
C2237      H2242   1.083       .  S
C2238      C2239   1.398       .  A
C2238      H2243   1.084       .  S
C2239      C2240   1.401       .  A
C2240      H2244   1.084       .  S
C2245      C2246   1.403       .  A
C2245      C2250   1.396       .  A
C2245      H2251   1.083       .  S
C2246      C2247   1.404       .  A
C2247      C2248   1.392       .  A
C2247      H2252   1.083       .  S
C2248      C2249   1.402       .  A
C2248      H2253   1.083       .  S
C2249      C2250   1.402       .  A
C2250      H2254   1.083       .  S
C2255      C2256   1.402       .  A
C2255      C2260   1.400       .  A
C2255      H2261   1.083       .  S
C2256      C2257   1.402       .  A
C2257      C2258   1.400       .  A
C2257      H2262   1.083       .  S
C2258      C2259   1.407       .  A
C2258      H2263   1.083       .  S
C2259      C2260   1.408       .  A
C2260      H2264   1.083       .  S
C2265      C2266   1.347       .  D
C2265      H2267   1.087       .  S
C2266      H2268   1.087       .  S
C2269      C2270   1.352       .  D
C2269      H2271   1.087       .  S
C2270      H2272   1.086       .  S
C2273      C2274   1.347       .  D
C2273      H2275   1.086       .  S
C2274      H2276   1.087       .  S
C2277      C2278   1.353       .  D
C2277      H2279   1.086       .  S
C2278      H2280   1.084       .  S
C2281      C2282   1.340       .  D
C2281      H2283   1.087       .  S
C2282      H2284   1.087       .  S
C2285      C2286   1.348       .  D
C2285      H2287   1.086       .  S
C2286      H2288   1.087       .  S
C2289      C2290   1.349       .  D
C2289      H2291   1.086       .  S
C2290      H2292   1.087       .  S
C2293      C2294   1.341       .  D
C2293      H2295   1.087       .  S
C2294      H2296   1.086       .  S
C2297      C2298   1.350       .  D
C2297      H2299   1.086       .  S
C2298      H2300   1.086       .  S
C2301      C2302   1.353       .  D
C2301      H2303   1.086       .  S
C2302      H2304   1.083       .  S
C2305      C2306   1.349       .  D
C2305      H2307   1.086       .  S
C2306      H2308   1.087       .  S
C2309      C2310   1.350       .  D
C2309      H2311   1.086       .  S
C2310      H2312   1.088       .  S
C2313      C2314   1.407       .  A
C2313      C2318   1.404       .  A
C2313      H2319   1.083       .  S
C2314      C2315   1.403       .  A
C2315      C2316   1.393       .  A
C2315      H2320   1.083       .  S
C2316      C2317   1.404       .  A
C2316      H2321   1.083       .  S
C2317      C2318   1.406       .  A
C2318      H2322   1.083       .  S
C2323      C2324   1.404       .  A
C2323      C2328   1.400       .  A
C2323      H2329   1.083       .  S
C2324      C2325   1.400       .  A
C2325      C2326   1.390       .  A
C2325      H2330   1.084       .  S
C2326      C2327   1.405       .  A
C2326      H2331   1.083       .  S
C2327      C2328   1.403       .  A
C2328      H2332   1.083       .  S
C2333      C2334   1.401       .  A
C2333      C2338   1.399       .  A
C2333      H2339   1.083       .  S
C2334      C2335   1.403       .  A
C2335      C2336   1.401       .  A
C2335      H2340   1.083       .  S
C2336      C2337   1.405       .  A
C2336      H2341   1.083       .  S
C2337      C2338   1.407       .  A
C2338      H2342   1.083       .  S
C2343      C2344   1.404       .  A
C2343      C2348   1.399       .  A
C2343      H2349   1.083       .  S
C2344      C2345   1.405       .  A
C2345      C2346   1.391       .  A
C2345      H2350   1.083       .  S
C2346      C2347   1.401       .  A
C2346      H2351   1.083       .  S
C2347      C2348   1.404       .  A
C2348      H2352   1.083       .  S
C2353      C2354   1.406       .  A
C2353      C2358   1.404       .  A
C2353      H2359   1.083       .  S
C2354      C2355   1.404       .  A
C2355      C2356   1.394       .  A
C2355      H2360   1.083       .  S
C2356      C2357   1.403       .  A
C2356      H2361   1.083       .  S
C2357      C2358   1.406       .  A
C2358      H2362   1.083       .  S
C2363      C2364   1.402       .  A
C2363      C2368   1.402       .  A
C2363      H2369   1.083       .  S
C2364      C2365   1.402       .  A
C2365      C2366   1.401       .  A
C2365      H2370   1.083       .  S
C2366      C2367   1.408       .  A
C2366      H2371   1.083       .  S
C2367      C2368   1.409       .  A
C2368      H2372   1.082       .  S
C2373      C2374   1.405       .  A
C2373      C2378   1.402       .  A
C2373      H2379   1.083       .  S
C2374      C2375   1.404       .  A
C2375      C2376   1.393       .  A
C2375      H2380   1.083       .  S
C2376      C2377   1.403       .  A
C2376      H2381   1.083       .  S
C2377      C2378   1.405       .  A
C2378      H2382   1.083       .  S
C2383      C2384   1.401       .  A
C2383      C2388   1.401       .  A
C2383      H2389   1.083       .  S
C2384      C2385   1.403       .  A
C2385      C2386   1.401       .  A
C2385      H2390   1.083       .  S
C2386      C2387   1.406       .  A
C2386      H2391   1.083       .  S
C2387      C2388   1.408       .  A
C2393      C2394   1.403       .  A
C2393      C2398   1.402       .  A
C2393      H2399   1.083       .  S
C2394      C2395   1.401       .  A
C2395      C2396   1.400       .  A
C2395      H2400   1.083       .  S
C2396      C2397   1.409       .  A
C2397      C2398   1.407       .  A
C2398      H2402   1.083       .  S
C2403      C2404   1.399       .  A
C2403      C2408   1.395       .  A
C2403      H2409   1.083       .  S
C2404      C2405   1.398       .  A
C2405      C2406   1.393       .  A
C2405      H2410   1.084       .  S
C2406      C2407   1.405       .  A
C2406      H2411   1.083       .  S
C2407      C2408   1.404       .  A
C2408      H2412   1.083       .  S
C2413      C2414   1.402       .  A
C2413      C2418   1.395       .  A
C2413      H2419   1.083       .  S
C2414      C2415   1.402       .  A
C2415      C2416   1.393       .  A
C2415      H2420   1.083       .  S
C2416      C2417   1.405       .  A
C2416      H2421   1.083       .  S
C2417      C2418   1.404       .  A
C2418      H2422   1.083       .  S
C2423      C2424   1.401       .  A
C2423      C2428   1.399       .  A
C2423      H2429   1.083       .  S
C2424      C2425   1.401       .  A
C2425      C2426   1.398       .  A
C2425      H2430   1.083       .  S
C2426      C2427   1.407       .  A
C2426      H2431   1.083       .  S
C2427      C2428   1.407       .  A
C2428      H2432   1.083       .  S
C2433      C2434   1.343       .  D
C2433      H2435   1.087       .  S
C2434      H2436   1.087       .  S
C2437      C2438   1.349       .  D
C2437      H2439   1.086       .  S
C2438      H2440   1.087       .  S
C2441      C2442   1.349       .  D
C2441      H2443   1.086       .  S
C2442      H2444   1.087       .  S
C2445      C2446   1.347       .  D
C2445      H2447   1.086       .  S
C2446      H2448   1.089       .  S
C2449      C2450   1.349       .  D
C2449      H2451   1.086       .  S
C2450      H2452   1.086       .  S
C2453      C2454   1.353       .  D
C2453      H2455   1.084       .  S
C2454      H2456   1.086       .  S
C2457      C2458   1.347       .  D
C2457      H2459   1.086       .  S
C2458      H2460   1.088       .  S
C2461      C2462   1.353       .  D
C2461      H2463   1.086       .  S
C2462      H2464   1.084       .  S
C2465      C2466   1.351       .  D
C2465      H2467   1.086       .  S
C2466      H2468   1.087       .  S
C2469      C2470   1.342       .  D
C2469      H2471   1.086       .  S
C2470      H2472   1.087       .  S
C2473      C2474   1.347       .  D
C2473      H2475   1.087       .  S
C2474      H2476   1.086       .  S
C2477      C2478   1.349       .  D
C2477      H2479   1.086       .  S
C2478      H2480   1.086       .  S
