geometry optimzed in LAMMPS
_audit_creation_date              2020-11-30 
_audit_creation_method            'lammps2cif' 
_symmetry_space_group_name_H-M    'P1' 
_symmetry_Int_Tables_number       1 
_symmetry_cell_setting            triclinic 
loop_ 
_symmetry_equiv_pos_as_xyz 
  x,y,z 
_cell_length_a                    29.970783291859576 
_cell_length_b                    33.68175352648301 
_cell_length_c                    29.13788286018035 
_cell_angle_alpha                 89.805871427398 
_cell_angle_beta                  90.10434827731693 
_cell_angle_gamma                 88.69856806927568 
loop_ 
_atom_site_label 
_atom_site_type_symbol 
_atom_site_fract_x 
_atom_site_fract_y 
_atom_site_fract_z 
_atom_site_charge 
O1          O  0.50316541  0.42453814  0.99924935    -0.57700
C2          C  0.00352801  0.30346570  0.01511662     0.74930
O3          O  0.45825275  0.36159847  0.87980523    -0.58850
C4          C  0.50831086  0.44984147  0.96759406     0.74910
C5          C  0.08974332  0.34230663  0.90738508     0.77300
Cd6        Cd  0.50503043  0.36667774  0.94840393     1.37470
O7          O  0.00008606  0.33922210  0.02825723    -0.57690
O8          O  0.08784270  0.35782521  0.94691784    -0.56500
C9          C  0.42087732  0.36204744  0.89996994     0.77260
O10         O  0.05286909  0.34001040  0.88646732    -0.58870
O11         O  0.00483165  0.29767121  0.97233009    -0.57330
O12         O  0.51427889  0.43664925  0.92747497    -0.57320
O13         O  0.42199127  0.36601519  0.94308469    -0.56490
C14         C  0.24671552  0.28891441  0.62485274    -0.02370
C15         C  0.26360070  0.28432022  0.83028620    -0.02370
O16         O  0.01383369  0.33257420  0.41860947    -0.57700
C17         C  0.99766913  0.44591987  0.47704435     0.74930
O18         O  0.45001081  0.34414536  0.55924919    -0.58850
C19         C  0.00353302  0.29800877  0.43151062     0.74910
C20         C  0.08198981  0.35263801  0.54668795     0.77300
Cd21       Cd  0.99994698  0.36238820  0.49621140     1.37470
O22         O  0.99291568  0.42079906  0.44524868    -0.57690
O23         O  0.08217973  0.36175380  0.50454479    -0.56500
C24         C  0.41393796  0.34629321  0.53655575     0.77260
O25         O  0.04409151  0.34826240  0.56487951    -0.58870
O26         O  0.00196487  0.43249759  0.51736198    -0.57330
O27         O  0.49469381  0.29357452  0.47352274    -0.57320
O28         O  0.41734891  0.35811464  0.49547524    -0.56490
O29         O  0.98675894  0.60449189  0.52561156    -0.57700
C30         C  0.99862319  0.48856048  0.46778011     0.74930
O31         O  0.45094675  0.59256237  0.38590941    -0.58850
C32         C  0.01307457  0.63273275  0.51863916     0.74910
C33         C  0.07700107  0.58243729  0.39161442     0.77300
Cd34       Cd  0.00016907  0.57226076  0.44910148     1.37460
O35         O  0.00760923  0.51326897  0.49891244    -0.57690
O36         O  0.07905869  0.56146529  0.42785011    -0.56500
C37         C  0.41508412  0.59246605  0.40853580     0.77260
O38         O  0.03888177  0.59667266  0.38123342    -0.58870
O39         O  0.99085617  0.50240087  0.42817685    -0.57330
O40         O  0.53356808  0.63199409  0.48086764    -0.57320
O41         O  0.41872087  0.58302958  0.45043140    -0.56490
C42         C  0.24570090  0.64727633  0.12591489    -0.02370
C43         C  0.24293027  0.65025843  0.33173179    -0.02370
O44         O  0.51023883  0.51802599  0.94530899    -0.57700
C45         C  0.00225182  0.64071940  0.93202347     0.74930
O46         O  0.45047059  0.59140050  0.06161911    -0.58850
C47         C  0.50620783  0.49242521  0.97688079     0.74910
C48         C  0.08181544  0.58601114  0.04544342     0.77300
Cd49       Cd  0.49975783  0.57558442  0.99655619     1.37460
O50         O  0.98927188  0.60701702  0.91900380    -0.57690
O51         O  0.08151952  0.57495708  0.00398668    -0.56500
C52         C  0.41410150  0.58890375  0.03979138     0.77260
O53         O  0.04404248  0.59167898  0.06403976    -0.58870
O54         O  0.01300330  0.64355157  0.97376621    -0.57330
O55         O  0.49916893  0.50527893  0.01693963    -0.57320
O56         O  0.41755591  0.57884301  0.99818167    -0.56490
O57         O  0.24688181  0.91886901  0.00138283    -0.57700
C58         C  0.24231830  0.79499072  0.01369679     0.74930
O59         O  0.20053819  0.84593893  0.88117393    -0.58850
C60         C  0.25132385  0.94397313  0.96930798     0.74910
C61         C  0.33077674  0.84549770  0.90928158     0.77300
Cd62       Cd  0.24445121  0.86093162  0.94964375     1.37470
O63         O  0.22678755  0.82887463  0.02500752    -0.57690
O64         O  0.32692328  0.85545136  0.95097230    -0.56500
C65         C  0.16242275  0.85364801  0.89796686     0.77260
O66         O  0.29472169  0.84397339  0.88656861    -0.58870
O67         O  0.25736559  0.79181262  0.97342161    -0.57330
O68         O  0.25301985  0.93064851  0.92889389    -0.57320
O69         O  0.16195596  0.86604545  0.93886545    -0.56490
C70         C  0.01405019  0.78488064  0.61485951    -0.02370
C71         C  0.99847125  0.78877073  0.82173553    -0.02370
O72         O  0.27212257  0.83488357  0.41676549    -0.57700
C73         C  0.25686573  0.95122455  0.47491286     0.74930
O74         O  0.21287041  0.84913845  0.55796164    -0.58850
C75         C  0.25797521  0.80176593  0.43083293     0.74910
C76         C  0.34634981  0.85081501  0.53547326     0.77300
Cd77       Cd  0.26128713  0.86762740  0.49382777     1.37460
O78         O  0.25398122  0.92596453  0.44297269    -0.57690
O79         O  0.34154566  0.85581607  0.49272185    -0.56500
C80         C  0.17650486  0.85295966  0.53583715     0.77260
O81         O  0.31205087  0.85595335  0.56023270    -0.58870
O82         O  0.26232540  0.93788765  0.51514541    -0.57330
O83         O  0.24669863  0.79994533  0.47253092    -0.57320
O84         O  0.17953428  0.86609682  0.49527876    -0.56490
O85         O  0.25789558  0.01929891  0.49750842    -0.57700
C86         C  0.24355302  0.14390386  0.50991652     0.74930
O87         O  0.29028636  0.09567609  0.37862088    -0.58850
C88         C  0.25379860  0.99392701  0.46584124     0.74910
C89         C  0.16207625  0.08707245  0.40380401     0.77300
Cd90       Cd  0.24757698  0.07743050  0.44649791     1.37470
O91         O  0.24056985  0.10853357  0.52446429    -0.57690
O92         O  0.16616163  0.07822039  0.44587576    -0.56500
C93         C  0.32818205  0.08930966  0.39672512     0.77260
O94         O  0.19781472  0.09018201  0.38125074    -0.58870
O95         O  0.25054150  0.14761849  0.46742649    -0.57330
O96         O  0.24669667  0.00713073  0.42582004    -0.57320
O97         O  0.32855306  0.07715188  0.43788307    -0.56490
C98         C  0.00274107  0.15317092  0.11725128    -0.02370
C99         C  0.99490659  0.15001622  0.32501295    -0.02370
O100        O  0.24412781  0.09782618  0.91408273    -0.57700
C101        C  0.25343735  0.98660006  0.97811618     0.74930
O102        O  0.29711816  0.10295749  0.05440132    -0.58850
C103        C  0.25973625  0.13118529  0.92491741     0.74910
C104        C  0.16660213  0.08528035  0.03618673     0.77300
Cd105      Cd  0.25279967  0.07032253  0.99500003     1.37460
O106        O  0.25884699  0.01136251  0.94586797    -0.57690
O107        O  0.17178072  0.08406648  0.99322526    -0.56500
C108        C  0.33444312  0.08776159  0.04287118     0.77260
O109        O  0.20146592  0.07907551  0.05998577    -0.58870
O110        O  0.24907675  0.00042826  0.01816050    -0.57330
O111        O  0.27127011  0.13508380  0.96627385    -0.57320
O112        O  0.33392964  0.06168770  0.01166100    -0.56490
C113        C  0.40897083  0.07693392  0.08076936    -0.09040
C114        C  0.37657712  0.10262502  0.06181717     0.07160
C115        C  0.38703124  0.14242714  0.05561394    -0.02800
C116        C  0.42821922  0.15612335  0.06954038    -0.07250
C117        C  0.45918467  0.13311481  0.09613354     0.06270
C118        C  0.45008001  0.09108815  0.09693435    -0.02280
Br119      Br  0.49280383  0.04864415  0.11072223    -0.01970
H120        H  0.40266260  0.04539112  0.08199226     0.10190
H121        H  0.43505477  0.18519938  0.05696017     0.08200
Br122      Br  0.34768567  0.17968050  0.02477380    -0.02400
C123        C  0.04502975  0.11603463  0.05411174    -0.09040
C124        C  0.04446942  0.12793065  0.10094376     0.07160
C125        C  0.08491970  0.12062121  0.12639851    -0.02800
C126        C  0.12272458  0.10468877  0.10456097    -0.07250
C127        C  0.12306814  0.09551194  0.05785941     0.06270
C128        C  0.08288030  0.09944728  0.03306433    -0.02280
Br129      Br  0.07658550  0.08311074  0.97031173    -0.01970
H130        H  0.01602399  0.12127735  0.03259199     0.10190
H131        H  0.15325947  0.10104098  0.12426638     0.08200
Br132      Br  0.09720471  0.13248240  0.18949465    -0.02400
C133        C  0.48678430  0.12095126  0.19570557    -0.09040
C134        C  0.99993222  0.15490571  0.17131369     0.07160
C135        C  0.01271214  0.18776288  0.19947247    -0.02800
C136        C  0.00623007  0.18675342  0.24707596    -0.07250
C137        C  0.99709303  0.15141894  0.27110907     0.06270
C138        C  0.48857117  0.11767618  0.24345578    -0.02280
Br139      Br  0.48134369  0.06444650  0.26635040    -0.01970
H140        H  0.47662419  0.09512946  0.17832233     0.10190
H141        H  0.01125217  0.21413697  0.26494326     0.08200
Br142      Br  0.04882902  0.23195832  0.18114396    -0.02400
C143        C  0.08406286  0.11012719  0.41217668    -0.09040
C144        C  0.11795054  0.09607472  0.38330489     0.07160
C145        C  0.10980482  0.09432550  0.33585106    -0.02800
C146        C  0.06956953  0.10943854  0.31797206    -0.07250
C147        C  0.03612272  0.12701241  0.34621865     0.06270
C148        C  0.04391027  0.12547219  0.39476235    -0.02280
Br149      Br  0.00291878  0.14380326  0.44139319    -0.01970
H150        H  0.08957573  0.11093465  0.44893219     0.10190
H151        H  0.06624043  0.10876057  0.28126354     0.08200
Br152      Br  0.15209746  0.07171495  0.29328276    -0.02400
C153        C  0.45002032  0.09441991  0.36528229    -0.09040
C154        C  0.45028069  0.12887703  0.33710263     0.07160
C155        C  0.40790915  0.14289154  0.32027661    -0.02800
C156        C  0.36858515  0.12771774  0.33821954    -0.07250
C157        C  0.36964006  0.09804113  0.37194058     0.06270
C158        C  0.41068060  0.07967552  0.38334499    -0.02280
Br159      Br  0.41552079  0.03393284  0.42283389    -0.01970
H160        H  0.48038688  0.07856871  0.37453152     0.10190
H161        H  0.33695116  0.14111303  0.32776689     0.08200
Br162      Br  0.39959935  0.18653076  0.27805119    -0.02400
C163        C  0.13155160  0.83440255  0.60354473    -0.09040
C164        C  0.13337883  0.84109961  0.55620591     0.07160
C165        C  0.09567186  0.83233315  0.52950770    -0.02800
C166        C  0.05829252  0.81608720  0.55026486    -0.07250
C167        C  0.05603987  0.80781753  0.59804930     0.06270
C168        C  0.09452973  0.81752954  0.62466645    -0.02280
Br169      Br  0.10561901  0.80589687  0.68819724    -0.01970
H170        H  0.16048415  0.84076120  0.62440862     0.10190
H171        H  0.03121603  0.80795176  0.52785176     0.08200
Br172      Br  0.09334191  0.83818956  0.46387245    -0.02400
C173        C  0.41595975  0.86047254  0.58108702    -0.09040
C174        C  0.38907820  0.83621373  0.55437454     0.07160
C175        C  0.40604081  0.79933892  0.54034080    -0.02800
C176        C  0.44705080  0.78561447  0.55678735    -0.07250
C177        C  0.47169278  0.80603311  0.59093034     0.06270
C178        C  0.45850520  0.84708362  0.59590515    -0.02280
Br179      Br  0.49975603  0.88981953  0.60402271    -0.01970
H180        H  0.40570035  0.89116353  0.58647870     0.10190
H181        H  0.45932339  0.75873943  0.54089810     0.08200
Br182      Br  0.37425043  0.76587746  0.49867769    -0.02400
C183        C  0.50680199  0.75114211  0.74478202    -0.09040
C184        C  0.99927960  0.78710848  0.76822209     0.07160
C185        C  0.99900343  0.82212596  0.74082606    -0.02800
C186        C  0.00051116  0.81965670  0.69288471    -0.07250
C187        C  0.00955229  0.78404544  0.66899803     0.06270
C188        C  0.51699860  0.74978586  0.69790066    -0.02280
Br189      Br  0.55205699  0.70263868  0.68311697    -0.01970
H190        H  0.51139733  0.72385775  0.76381236     0.10190
H191        H  0.99768613  0.84691925  0.67530208     0.08200
Br192      Br  0.99312076  0.87519541  0.76502194    -0.02400
C193        C  0.04050551  0.84745009  0.86101231    -0.09040
C194        C  0.04188724  0.81229387  0.83419647     0.07160
C195        C  0.08556708  0.79720157  0.82232327    -0.02800
C196        C  0.12370329  0.81429039  0.84016992    -0.07250
C197        C  0.12112621  0.84490493  0.87212976     0.06270
C198        C  0.07911578  0.86268175  0.88125331    -0.02280
Br199      Br  0.07223249  0.90766945  0.92109353    -0.01970
H200        H  0.00936587  0.86287864  0.86808772     0.10190
H201        H  0.15587040  0.80056951  0.83243206     0.08200
Br202      Br  0.09895545  0.74798024  0.79153003    -0.02400
C203        C  0.45183699  0.81243405  0.88966074    -0.09040
C204        C  0.45412841  0.80829698  0.84121467     0.07160
C205        C  0.41372926  0.81821219  0.81632429    -0.02800
C206        C  0.37580323  0.83208191  0.83978971    -0.07250
C207        C  0.37443996  0.83533864  0.88756425     0.06270
C208        C  0.41349339  0.82594004  0.91258969    -0.02280
Br209      Br  0.41713924  0.82871198  0.97831892    -0.01970
H210        H  0.48056775  0.80436365  0.91052439     0.10190
H211        H  0.34585176  0.83899299  0.82016285     0.08200
Br212      Br  0.40017801  0.81050588  0.75209825    -0.02400
C213        C  0.47146988  0.68141340  0.86712507    -0.09040
C214        C  0.00408468  0.67550661  0.90101965     0.07160
C215        C  0.03576860  0.70491309  0.90763824    -0.02800
C216        C  0.03319549  0.73994980  0.88233603    -0.07250
C217        C  0.00124300  0.74690829  0.84677221     0.06270
C218        C  0.46915299  0.71647604  0.84081193    -0.02280
Br219      Br  0.41930643  0.71974518  0.79965856    -0.01970
H220        H  0.44628096  0.65920960  0.86236235     0.10190
H221        H  0.05633550  0.76213808  0.89293504     0.08200
Br222      Br  0.08468327  0.69915043  0.95025781    -0.02400
C223        C  0.27957389  0.71616852  0.34824853    -0.09040
C224        C  0.24144106  0.69229643  0.35516951     0.07160
C225        C  0.20821876  0.70805767  0.38625378    -0.02800
C226        C  0.21433908  0.74460321  0.40760278    -0.07250
C227        C  0.25251890  0.76671404  0.40107342     0.06270
C228        C  0.28519493  0.75260113  0.37050264    -0.02280
Br229      Br  0.33959154  0.78018806  0.36054081    -0.01970
H230        H  0.30583115  0.70599658  0.32536115     0.10190
H231        H  0.18925844  0.75553065  0.43152841     0.08200
Br232      Br  0.15546554  0.68377876  0.40975232    -0.02400
C233        C  0.28294971  0.70591462  0.08227517    -0.09040
C234        C  0.24337154  0.69050109  0.10234401     0.07160
C235        C  0.20500980  0.71691728  0.09876067    -0.02800
C236        C  0.20564643  0.75076153  0.07025288    -0.07250
C237        C  0.24354184  0.76075287  0.04553586     0.06270
C238        C  0.28271833  0.73829683  0.05240309    -0.02280
Br239      Br  0.33778013  0.75082230  0.02257072    -0.01970
H240        H  0.31545367  0.69257892  0.08842079     0.10190
H241        H  0.17605716  0.76972929  0.06734616     0.08200
Br242      Br  0.15267869  0.71715879  0.13587637    -0.02400
C243        C  0.29300123  0.62073555  0.05854779    -0.09040
C244        C  0.29027060  0.62685807  0.10675694     0.07160
C245        C  0.33197745  0.62251587  0.13104036    -0.02800
C246        C  0.36997028  0.60692641  0.10894177    -0.07250
C247        C  0.37054121  0.59881441  0.06184571     0.06270
C248        C  0.33099363  0.60548832  0.03664361    -0.02280
Br249      Br  0.32600275  0.59698151  0.97163899    -0.01970
H250        H  0.26502535  0.62938710  0.03686910     0.10190
H251        H  0.40076327  0.60413155  0.12836206     0.08200
Br252      Br  0.34725516  0.64656711  0.18875768    -0.02400
C253        C  0.20408039  0.59156273  0.07945304    -0.09040
C254        C  0.20276594  0.62217827  0.11300239     0.07160
C255        C  0.15980098  0.62674858  0.13440845    -0.02800
C256        C  0.12127282  0.61544769  0.11127181    -0.07250
C257        C  0.12364821  0.59378256  0.07061681     0.06270
C258        C  0.16567991  0.57893558  0.05686371    -0.02280
Br259      Br  0.17320538  0.53960594  0.00971039    -0.01970
H260        H  0.23433183  0.57566276  0.07080929     0.10190
H261        H  0.08903636  0.62253139  0.12631542     0.08200
Br262      Br  0.14788477  0.63731512  0.19840903    -0.02400
C263        C  0.24928137  0.61642635  0.25398797    -0.09040
C264        C  0.24484835  0.65290440  0.27780418     0.07160
C265        C  0.23858728  0.68772513  0.25012294    -0.02800
C266        C  0.24340500  0.68560874  0.20237700    -0.07250
C267        C  0.24753925  0.64912627  0.17893844     0.06270
C268        C  0.25051500  0.61402766  0.20617664    -0.02280
Br269      Br  0.25595344  0.56125026  0.18126026    -0.01970
H270        H  0.25199924  0.58895175  0.27325223     0.10190
H271        H  0.24062237  0.71320202  0.18364632     0.08200
Br272      Br  0.21315374  0.73794993  0.26966323    -0.02400
C273        C  0.32446955  0.62290075  0.32331833    -0.09040
C274        C  0.28700875  0.63090080  0.35189739     0.07160
C275        C  0.29398289  0.62539070  0.40012113    -0.02800
C276        C  0.33539493  0.61216839  0.41707202    -0.07250
C277        C  0.37142540  0.60385792  0.38792825     0.06270
C278        C  0.36516012  0.60831124  0.34032966    -0.02280
Br279      Br  0.41002903  0.59458030  0.29558934    -0.01970
H280        H  0.32386000  0.62905525  0.28712556     0.10190
H281        H  0.33952077  0.60882510  0.45384614     0.08200
Br282      Br  0.24960078  0.63388126  0.44661345    -0.02400
C283        C  0.15805621  0.57238399  0.37638086    -0.09040
C284        C  0.11774803  0.59204918  0.36526897     0.07160
C285        C  0.11883045  0.62329889  0.33293008    -0.02800
C286        C  0.15983195  0.63954884  0.32123916    -0.07250
C287        C  0.20059703  0.62502916  0.34024301     0.06270
C288        C  0.19908266  0.58675426  0.36149588    -0.02280
Br289      Br  0.24762428  0.54840480  0.36554390    -0.01970
H290        H  0.15768702  0.54541837  0.39676207     0.10190
H291        H  0.15935640  0.66618686  0.30038947     0.08200
Br292      Br  0.06640613  0.64874329  0.30727461    -0.02400
C293        C  0.05552892  0.72619488  0.57362719    -0.09040
C294        C  0.01728358  0.74079074  0.59728495     0.07160
C295        C  0.48164722  0.71342374  0.60333028    -0.02800
C296        C  0.48199727  0.67732930  0.57943280    -0.07250
C297        C  0.01782178  0.66622116  0.55108247     0.06270
C298        C  0.05600483  0.68971451  0.55112841    -0.02280
Br299      Br  0.11095357  0.67294505  0.52283496    -0.01970
H300        H  0.08593598  0.74271620  0.57223210     0.10190
H301        H  0.45298796  0.65878571  0.58130867     0.08200
Br302      Br  0.42905918  0.72455929  0.63967484    -0.02400
C303        C  0.45939093  0.20753269  0.37334641    -0.09040
C304        C  0.99606742  0.19278621  0.34717608     0.07160
C305        C  0.03527745  0.21667564  0.34755385    -0.02800
C306        C  0.03624691  0.25212760  0.37284992    -0.07250
C307        C  0.99997978  0.26434954  0.39972087     0.06270
C308        C  0.46125658  0.24198253  0.39923585    -0.02280
Br309      Br  0.40958334  0.25604324  0.43502660    -0.01970
H310        H  0.42933261  0.19132238  0.37788578     0.10190
H311        H  0.06645847  0.26919556  0.37344401     0.08200
Br312      Br  0.09035354  0.20332647  0.31661824    -0.02400
C313        C  0.23675232  0.21357930  0.83800038    -0.09040
C314        C  0.27089994  0.24074120  0.84877895     0.07160
C315        C  0.30496390  0.22647056  0.88002568    -0.02800
C316        C  0.30196203  0.18875147  0.89967126    -0.07250
C317        C  0.26538795  0.16469045  0.89250615     0.06270
C318        C  0.23315689  0.17671141  0.86008312    -0.02280
Br319      Br  0.18079711  0.14655655  0.84870106    -0.01970
H320        H  0.21045537  0.22236128  0.81429945     0.10190
H321        H  0.32736929  0.17898684  0.92394878     0.08200
Br322      Br  0.35388200  0.25443488  0.90703798    -0.02400
C323        C  0.22382843  0.24912454  0.55332578    -0.09040
C324        C  0.23743233  0.24728619  0.60005309     0.07160
C325        C  0.23871785  0.20726366  0.61811660    -0.02800
C326        C  0.24293584  0.17462393  0.58812304    -0.07250
C327        C  0.23892766  0.17908717  0.54052437     0.06270
C328        C  0.22628330  0.21679055  0.52362227    -0.02280
Br329      Br  0.20884225  0.22669884  0.46095561    -0.01970
H330        H  0.20970483  0.27615047  0.53898250     0.10190
H331        H  0.24689403  0.14499409  0.60239428     0.08200
Br332      Br  0.22201645  0.18961562  0.67866400    -0.02400
C333        C  0.29448237  0.31231530  0.55469765    -0.09040
C334        C  0.29076729  0.30816794  0.60328382     0.07160
C335        C  0.32887208  0.32291889  0.62821997    -0.02800
C336        C  0.36798173  0.33344325  0.60526720    -0.07250
C337        C  0.37075989  0.33502282  0.55761981     0.06270
C338        C  0.33251361  0.32594575  0.53228676    -0.02280
Br339      Br  0.32855256  0.33195604  0.46677165    -0.01970
H340        H  0.26690786  0.30788849  0.53237748     0.10190
H341        H  0.39646234  0.34267679  0.62526176     0.08200
Br342      Br  0.33410349  0.33803179  0.69163435    -0.02400
C343        C  0.20358518  0.34807440  0.58499956    -0.09040
C344        C  0.20326654  0.31432759  0.61419038     0.07160
C345        C  0.16043679  0.30169407  0.62902109    -0.02800
C346        C  0.12174012  0.31655646  0.60819567    -0.07250
C347        C  0.12342605  0.34450434  0.57293456     0.06270
C348        C  0.16452336  0.36206533  0.56305864    -0.02280
Br349      Br  0.16941330  0.40512347  0.52018959    -0.01970
H350        H  0.23416676  0.36283852  0.57699355     0.10190
H351        H  0.08997601  0.30450992  0.61828594     0.08200
Br352      Br  0.14957546  0.26477077  0.67761553    -0.02400
C353        C  0.23608405  0.31879580  0.70537854    -0.09040
C354        C  0.25221065  0.28681709  0.67791114     0.07160
C355        C  0.27908516  0.25807593  0.70097075    -0.02800
C356        C  0.27510551  0.25378321  0.74872438    -0.07250
C357        C  0.25984742  0.28568484  0.77648703     0.06270
C358        C  0.24442961  0.32036996  0.75262045    -0.02280
Br359      Br  0.23392740  0.37131648  0.78103443    -0.01970
H360        H  0.22134791  0.34508579  0.68958029     0.10190
H361        H  0.28987768  0.22735993  0.76404631     0.08200
Br362      Br  0.32606751  0.22764610  0.67116250    -0.02400
C363        C  0.38322665  0.32870270  0.83681617    -0.09040
C364        C  0.37921723  0.35352820  0.87471028     0.07160
C365        C  0.33616857  0.36339428  0.89075135    -0.02800
C366        C  0.29889443  0.34486695  0.87171843    -0.07250
C367        C  0.30368651  0.31213397  0.84138124     0.06270
C368        C  0.34743176  0.30643130  0.82172118    -0.02280
Br369      Br  0.36826561  0.26303832  0.78434288    -0.01970
H370        H  0.41615459  0.32180500  0.82325716     0.10190
H371        H  0.26659320  0.35506960  0.88339985     0.08200
Br372      Br  0.32632181  0.40115664  0.93904410    -0.02400
C373        C  0.17784065  0.30081652  0.82487589    -0.09040
C374        C  0.21710078  0.29787740  0.85239292     0.07160
C375        C  0.20984989  0.30339020  0.90051555    -0.02800
C376        C  0.16890582  0.31876914  0.91693867    -0.07250
C377        C  0.13255758  0.32665151  0.88764059     0.06270
C378        C  0.13729525  0.31656155  0.84103754    -0.02280
Br379      Br  0.09074745  0.32442968  0.79616405    -0.01970
H380        H  0.17764711  0.29083686  0.78977000     0.10190
H381        H  0.16517219  0.32371418  0.95346992     0.08200
Br382      Br  0.25221643  0.28965717  0.94768237    -0.02600
C383        C  0.47522477  0.26373935  0.08103847    -0.09040
C384        C  0.00741836  0.26968436  0.04719170     0.07160
C385        C  0.04214310  0.24156981  0.04200734    -0.02800
C386        C  0.04242169  0.20664570  0.06761035    -0.07250
C387        C  0.00668791  0.19669626  0.09724322     0.06270
C388        C  0.47447959  0.22808719  0.10625588    -0.02280
Br389      Br  0.42511959  0.22335684  0.14822239    -0.01970
H390        H  0.44897718  0.28593512  0.08605811     0.10190
H391        H  0.07112891  0.18736575  0.06257815     0.08200
Br392      Br  0.09063161  0.24930769  0.99995035    -0.02400
O393        O  0.00316543  0.42453814  0.99924926    -0.57700
C394        C  0.50352803  0.30346572  0.01511666     0.74930
O395        O  0.95825274  0.36159839  0.87980520    -0.58850
C396        C  0.00831089  0.44984144  0.96759395     0.74910
C397        C  0.58974331  0.34230665  0.90738512     0.77300
Cd398      Cd  0.00503043  0.36667770  0.94840388     1.37470
O399        O  0.50008608  0.33922212  0.02825728    -0.57690
O400        O  0.58784270  0.35782524  0.94691788    -0.56500
C401        C  0.92087731  0.36204739  0.89996991     0.77260
O402        O  0.55286908  0.34001043  0.88646736    -0.58870
O403        O  0.50483165  0.29767124  0.97233013    -0.57330
O404        O  0.01427890  0.43664920  0.92747487    -0.57320
O405        O  0.92199127  0.36601519  0.94308465    -0.56490
C406        C  0.74671548  0.28891439  0.62485278    -0.02370
C407        C  0.76360066  0.28432018  0.83028623    -0.02370
O408        O  0.51383375  0.33257422  0.41860946    -0.57700
C409        C  0.49766926  0.44591989  0.47704427     0.74930
O410        O  0.95001078  0.34414530  0.55924922    -0.58850
C411        C  0.50353307  0.29800879  0.43151062     0.74910
C412        C  0.58198982  0.35263802  0.54668796     0.77300
Cd413      Cd  0.49994702  0.36238823  0.49621137     1.37470
O414        O  0.49291565  0.42079908  0.44524863    -0.57690
O415        O  0.58217975  0.36175377  0.50454478    -0.56500
C416        C  0.91393794  0.34629314  0.53655577     0.77260
O417        O  0.54409151  0.34826246  0.56487951    -0.58870
O418        O  0.50196511  0.43249764  0.51736190    -0.57330
O419        O  0.99469378  0.29357449  0.47352275    -0.57320
O420        O  0.91734888  0.35811457  0.49547527    -0.56490
O421        O  0.48675912  0.60449183  0.52561140    -0.57700
C422        C  0.49862334  0.48856050  0.46777999     0.74930
O423        O  0.95094683  0.59256287  0.38590967    -0.58850
C424        C  0.51307472  0.63273272  0.51863902     0.74910
C425        C  0.57700109  0.58243742  0.39161408     0.77300
Cd426      Cd  0.50016919  0.57226076  0.44910128     1.37460
O427        O  0.50760956  0.51326899  0.49891225    -0.57690
O428        O  0.57905869  0.56146509  0.42784952    -0.56500
C429        C  0.91508410  0.59246621  0.40853587     0.77260
O430        O  0.53888185  0.59667310  0.38123340    -0.58870
O431        O  0.49085615  0.50240087  0.42817676    -0.57330
O432        O  0.03356794  0.63199409  0.48086780    -0.57320
O433        O  0.91872070  0.58302931  0.45043136    -0.56490
C434        C  0.74570101  0.64727639  0.12591479    -0.02370
C435        C  0.74293032  0.65025854  0.33173167    -0.02370
O436        O  0.01023890  0.51802596  0.94530883    -0.57700
C437        C  0.50225169  0.64071938  0.93202362     0.74930
O438        O  0.95047063  0.59140055  0.06161885    -0.58850
C439        C  0.00620787  0.49242519  0.97688065     0.74910
C440        C  0.58181548  0.58601114  0.04544348     0.77300
Cd441      Cd  0.99975788  0.57558441  0.99655600     1.37460
O442        O  0.48927177  0.60701699  0.91900398    -0.57690
O443        O  0.58151947  0.57495713  0.00398672    -0.56500
C444        C  0.91410154  0.58890381  0.03979111     0.77260
O445        O  0.54404254  0.59167894  0.06403991    -0.58870
O446        O  0.51300316  0.64355159  0.97376636    -0.57330
O447        O  0.99916895  0.50527893  0.01693947    -0.57320
O448        O  0.91755594  0.57884303  0.99818142    -0.56490
O449        O  0.74688184  0.91886896  0.00138276    -0.57700
C450        C  0.74231849  0.79499076  0.01369677     0.74930
O451        O  0.70053819  0.84593878  0.88117388    -0.58850
C452        C  0.75132384  0.94397309  0.96930792     0.74910
C453        C  0.83077675  0.84549777  0.90928148     0.77300
Cd454      Cd  0.74445124  0.86093161  0.94964366     1.37470
O455        O  0.72678740  0.82887459  0.02500735    -0.57690
O456        O  0.82692330  0.85545149  0.95097218    -0.56500
C457        C  0.66242276  0.85364788  0.89796681     0.77260
O458        O  0.79472170  0.84397336  0.88656853    -0.58870
O459        O  0.75736606  0.79181270  0.97342171    -0.57330
O460        O  0.75301981  0.93064850  0.92889382    -0.57320
O461        O  0.66195598  0.86604536  0.93886538    -0.56490
C462        C  0.51405016  0.78488055  0.61485950    -0.02370
C463        C  0.49847121  0.78877064  0.82173554    -0.02370
O464        O  0.77212256  0.83488359  0.41676563    -0.57700
C465        C  0.75686570  0.95122457  0.47491294     0.74930
O466        O  0.71287037  0.84913848  0.55796176    -0.58850
C467        C  0.75797522  0.80176594  0.43083307     0.74910
C468        C  0.84634980  0.85081510  0.53547337     0.77300
Cd469      Cd  0.76128711  0.86762743  0.49382790     1.37460
O470        O  0.75398116  0.92596454  0.44297279    -0.57690
O471        O  0.84154564  0.85581618  0.49272196    -0.56500
C472        C  0.67650483  0.85295970  0.53583727     0.77260
O473        O  0.81205087  0.85595341  0.56023282    -0.58870
O474        O  0.76232539  0.93788769  0.51514549    -0.57330
O475        O  0.74669863  0.79994534  0.47253106    -0.57320
O476        O  0.67953426  0.86609687  0.49527889    -0.56490
O477        O  0.75789560  0.01929894  0.49750845    -0.57700
C478        C  0.74355299  0.14390386  0.50991654     0.74930
O479        O  0.79028635  0.09567608  0.37862089    -0.58850
C480        C  0.75379857  0.99392702  0.46584129     0.74910
C481        C  0.66207625  0.08707245  0.40380402     0.77300
Cd482      Cd  0.74757698  0.07743051  0.44649792     1.37470
O483        O  0.74056981  0.10853357  0.52446429    -0.57690
O484        O  0.66616163  0.07822040  0.44587577    -0.56500
C485        C  0.82818205  0.08930965  0.39672512     0.77260
O486        O  0.69781472  0.09018202  0.38125075    -0.58870
O487        O  0.75054150  0.14761850  0.46742651    -0.57330
O488        O  0.74669662  0.00713073  0.42582010    -0.57320
O489        O  0.82855306  0.07715188  0.43788307    -0.56490
C490        C  0.50274110  0.15317094  0.11725129    -0.02370
C491        C  0.49490660  0.15001624  0.32501295    -0.02370
O492        O  0.74412777  0.09782613  0.91408274    -0.57700
C493        C  0.75343734  0.98660002  0.97811614     0.74930
O494        O  0.79711815  0.10295743  0.05440133    -0.58850
C495        C  0.75973624  0.13118524  0.92491742     0.74910
C496        C  0.66660213  0.08528031  0.03618674     0.77300
Cd497      Cd  0.75279966  0.07032248  0.99500003     1.37460
O498        O  0.75884697  0.01136249  0.94586794    -0.57690
O499        O  0.67178072  0.08406645  0.99322526    -0.56500
C500        C  0.83444311  0.08776154  0.04287119     0.77260
O501        O  0.70146590  0.07907544  0.05998577    -0.58870
O502        O  0.74907675  0.00042820  0.01816047    -0.57330
O503        O  0.77127014  0.13508373  0.96627385    -0.57320
O504        O  0.83392963  0.06168765  0.01166101    -0.56490
C505        C  0.90897083  0.07693388  0.08076937    -0.09040
C506        C  0.87657710  0.10262497  0.06181718     0.07160
C507        C  0.88703121  0.14242709  0.05561395    -0.02800
C508        C  0.92821919  0.15612332  0.06954038    -0.07250
C509        C  0.95918466  0.13311479  0.09613354     0.06270
C510        C  0.95008000  0.09108812  0.09693435    -0.02280
Br511      Br  0.99280383  0.04864412  0.11072223    -0.01970
H512        H  0.90266261  0.04539108  0.08199227     0.10190
H513        H  0.93505473  0.18519935  0.05696017     0.08200
Br514      Br  0.84768563  0.17968045  0.02477383    -0.02400
C515        C  0.54502976  0.11603465  0.05411174    -0.09040
C516        C  0.54446944  0.12793066  0.10094376     0.07160
C517        C  0.58491971  0.12062120  0.12639851    -0.02800
C518        C  0.62272458  0.10468874  0.10456098    -0.07250
C519        C  0.62306814  0.09551192  0.05785941     0.06270
C520        C  0.58288030  0.09944728  0.03306432    -0.02280
Br521      Br  0.57658550  0.08311076  0.97031172    -0.01970
H522        H  0.51602401  0.12127740  0.03259198     0.10190
H523        H  0.65325947  0.10104093  0.12426639     0.08200
Br524      Br  0.59720472  0.13248238  0.18949465    -0.02400
C525        C  0.98678429  0.12095124  0.19570556    -0.09040
C526        C  0.49993224  0.15490572  0.17131369     0.07160
C527        C  0.51271218  0.18776289  0.19947247    -0.02800
C528        C  0.50623009  0.18675343  0.24707596    -0.07250
C529        C  0.49709304  0.15141895  0.27110907     0.06270
C530        C  0.98857117  0.11767616  0.24345578    -0.02280
Br531      Br  0.98134370  0.06444648  0.26635040    -0.01970
H532        H  0.97662419  0.09512944  0.17832233     0.10190
H533        H  0.51125220  0.21413698  0.26494326     0.08200
Br534      Br  0.54882907  0.23195831  0.18114397    -0.02400
C535        C  0.58406287  0.11012721  0.41217668    -0.09040
C536        C  0.61795055  0.09607474  0.38330489     0.07160
C537        C  0.60980482  0.09432551  0.33585106    -0.02800
C538        C  0.56956954  0.10943855  0.31797207    -0.07250
C539        C  0.53612272  0.12701243  0.34621865     0.06270
C540        C  0.54391028  0.12547221  0.39476236    -0.02280
Br541      Br  0.50291879  0.14380329  0.44139319    -0.01970
H542        H  0.58957574  0.11093467  0.44893219     0.10190
H543        H  0.56624043  0.10876058  0.28126354     0.08200
Br544      Br  0.65209746  0.07171495  0.29328276    -0.02400
C545        C  0.95002031  0.09441989  0.36528229    -0.09040
C546        C  0.95028068  0.12887700  0.33710262     0.07160
C547        C  0.90790914  0.14289152  0.32027660    -0.02800
C548        C  0.86858514  0.12771772  0.33821953    -0.07250
C549        C  0.86964005  0.09804111  0.37194058     0.06270
C550        C  0.91068059  0.07967550  0.38334498    -0.02280
Br551      Br  0.91552078  0.03393282  0.42283389    -0.01970
H552        H  0.98038687  0.07856869  0.37453151     0.10190
H553        H  0.83695115  0.14111301  0.32776689     0.08200
Br554      Br  0.89959934  0.18653074  0.27805119    -0.02400
C555        C  0.63155156  0.83440252  0.60354481    -0.09040
C556        C  0.63337879  0.84109963  0.55620601     0.07160
C557        C  0.59567184  0.83233318  0.52950777    -0.02800
C558        C  0.55829250  0.81608719  0.55026490    -0.07250
C559        C  0.55603984  0.80781747  0.59804933     0.06270
C560        C  0.59452969  0.81752948  0.62466651    -0.02280
Br561      Br  0.60561897  0.80589672  0.68819727    -0.01970
H562        H  0.66048410  0.84076116  0.62440873     0.10190
H563        H  0.53121603  0.80795176  0.52785178     0.08200
Br564      Br  0.59334189  0.83818967  0.46387253    -0.02400
C565        C  0.91595978  0.86047264  0.58108706    -0.09040
C566        C  0.88907821  0.83621383  0.55437463     0.07160
C567        C  0.90604079  0.79933901  0.54034088    -0.02800
C568        C  0.94705079  0.78561456  0.55678740    -0.07250
C569        C  0.97169280  0.80603321  0.59093036     0.06270
C570        C  0.95850525  0.84708371  0.59590516    -0.02280
Br571      Br  0.99975610  0.88981961  0.60402269    -0.01970
H572        H  0.90570041  0.89116364  0.58647873     0.10190
H573        H  0.95932336  0.75873951  0.54089815     0.08200
Br574      Br  0.87425037  0.76587754  0.49867783    -0.02400
C575        C  0.00680208  0.75114221  0.74478202    -0.09040
C576        C  0.49927953  0.78710838  0.76822209     0.07160
C577        C  0.49900338  0.82212586  0.74082606    -0.02800
C578        C  0.50051112  0.81965660  0.69288470    -0.07250
C579        C  0.50955223  0.78404534  0.66899802     0.06270
C580        C  0.01699869  0.74978596  0.69790067    -0.02280
Br581      Br  0.05205710  0.70263880  0.68311697    -0.01970
H582        H  0.01139743  0.72385786  0.76381236     0.10190
H583        H  0.49768611  0.84691913  0.67530211     0.08200
Br584      Br  0.49312073  0.87519531  0.76502195    -0.02400
C585        C  0.54050550  0.84744997  0.86101232    -0.09040
C586        C  0.54188721  0.81229376  0.83419646     0.07160
C587        C  0.58556704  0.79720145  0.82232325    -0.02800
C588        C  0.62370326  0.81429025  0.84016989    -0.07250
C589        C  0.62112620  0.84490480  0.87212973     0.06270
C590        C  0.57911578  0.86268162  0.88125331    -0.02280
Br591      Br  0.57223250  0.90766930  0.92109354    -0.01970
H592        H  0.50936586  0.86287852  0.86808774     0.10190
H593        H  0.65587036  0.80056937  0.83243202     0.08200
Br594      Br  0.59895537  0.74798011  0.79153002    -0.02400
C595        C  0.95183701  0.81243415  0.88966070    -0.09040
C596        C  0.95412845  0.80829707  0.84121464     0.07160
C597        C  0.91372930  0.81821226  0.81632424    -0.02800
C598        C  0.87580326  0.83208198  0.83978963    -0.07250
C599        C  0.87443999  0.83533873  0.88756417     0.06270
C600        C  0.91349341  0.82594016  0.91258962    -0.02280
Br601      Br  0.91713926  0.82871219  0.97831885    -0.01970
H602        H  0.98056777  0.80436377  0.91052437     0.10190
H603        H  0.84585179  0.83899303  0.82016276     0.08200
Br604      Br  0.90017808  0.81050593  0.75209820    -0.02400
C605        C  0.97146999  0.68141346  0.86712498    -0.09040
C606        C  0.50408456  0.67550656  0.90101975     0.07160
C607        C  0.53576852  0.70491301  0.90763828    -0.02800
C608        C  0.53319545  0.73994970  0.88233603    -0.07250
C609        C  0.50124294  0.74690819  0.84677222     0.06270
C610        C  0.96915307  0.71647612  0.84081188    -0.02280
Br611      Br  0.91930651  0.71974525  0.79965852    -0.01970
H612        H  0.94628110  0.65920965  0.86236222     0.10190
H613        H  0.55633549  0.76213797  0.89293502     0.08200
Br614      Br  0.58468322  0.69915034  0.95025783    -0.02400
C615        C  0.77957392  0.71616862  0.34824853    -0.09040
C616        C  0.74144110  0.69229651  0.35516948     0.07160
C617        C  0.70821882  0.70805768  0.38625382    -0.02800
C618        C  0.71433915  0.74460318  0.40760290    -0.07250
C619        C  0.75251894  0.76671405  0.40107355     0.06270
C620        C  0.78519495  0.75260120  0.37050272    -0.02280
Br621      Br  0.83959155  0.78018816  0.36054092    -0.01970
H622        H  0.80583116  0.70599674  0.32536111     0.10190
H623        H  0.68925852  0.75553057  0.43152857     0.08200
Br624      Br  0.65546561  0.68377872  0.40975231    -0.02400
C625        C  0.78294988  0.70591485  0.08227548    -0.09040
C626        C  0.74337163  0.69050116  0.10234397     0.07160
C627        C  0.70500981  0.71691723  0.09876040    -0.02800
C628        C  0.70564647  0.75076147  0.07025263    -0.07250
C629        C  0.74354201  0.76075294  0.04553587     0.06270
C630        C  0.78271856  0.73829705  0.05240341    -0.02280
Br631      Br  0.83778050  0.75082273  0.02257145    -0.01970
H632        H  0.81545384  0.69257922  0.08842136     0.10190
H633        H  0.67605714  0.76972913  0.06734570     0.08200
Br634      Br  0.65267853  0.71715859  0.13587583    -0.02400
C635        C  0.79300136  0.62073590  0.05854756    -0.09040
C636        C  0.79027071  0.62685818  0.10675675     0.07160
C637        C  0.83197753  0.62251577  0.13104018    -0.02800
C638        C  0.86997031  0.60692627  0.10894154    -0.07250
C639        C  0.87054126  0.59881452  0.06184543     0.06270
C640        C  0.83099375  0.60548872  0.03664331    -0.02280
Br641      Br  0.82600300  0.59698247  0.97163858    -0.01970
H642        H  0.76502550  0.62938759  0.03686891     0.10190
H643        H  0.90076326  0.60413120  0.12836186     0.08200
Br644      Br  0.84725533  0.64656681  0.18875758    -0.02400
C645        C  0.70408051  0.59156294  0.07945273    -0.09040
C646        C  0.70276606  0.62217832  0.11300228     0.07160
C647        C  0.65980114  0.62674843  0.13440850    -0.02800
C648        C  0.62127296  0.61544748  0.11127194    -0.07250
C649        C  0.62364829  0.59378254  0.07061681     0.06270
C650        C  0.66568000  0.57893576  0.05686347    -0.02280
Br651      Br  0.67320548  0.53960638  0.00970987    -0.01970
H652        H  0.73433196  0.57566309  0.07080877     0.10190
H653        H  0.58903652  0.62253105  0.12631567     0.08200
Br654      Br  0.64788498  0.63731517  0.19840904    -0.02400
C655        C  0.74928161  0.61642648  0.25398787    -0.09040
C656        C  0.74484848  0.65290453  0.27780406     0.07160
C657        C  0.73858739  0.68772524  0.25012282    -0.02800
C658        C  0.74340510  0.68560884  0.20237688    -0.07250
C659        C  0.74753939  0.64912636  0.17893833     0.06270
C660        C  0.75051518  0.61402776  0.20617655    -0.02280
Br661      Br  0.75595357  0.56125035  0.18126017    -0.01970
H662        H  0.75199954  0.58895188  0.27325213     0.10190
H663        H  0.74062238  0.71320211  0.18364619     0.08200
Br664      Br  0.71315391  0.73795006  0.26966313    -0.02400
C665        C  0.82446971  0.62290120  0.32331831    -0.09040
C666        C  0.78700878  0.63090090  0.35189729     0.07160
C667        C  0.79398278  0.62539054  0.40012101    -0.02800
C668        C  0.83539481  0.61216823  0.41707194    -0.07250
C669        C  0.87142544  0.60385813  0.38792824     0.06270
C670        C  0.86516034  0.60831184  0.34032967    -0.02280
Br671      Br  0.91002962  0.59458177  0.29558941    -0.01970
H672        H  0.82386024  0.62905596  0.28712559     0.10190
H673        H  0.83952053  0.60882468  0.45384604     0.08200
Br674      Br  0.74960052  0.63388079  0.44661324    -0.02400
C675        C  0.65805618  0.57238401  0.37638033    -0.09040
C676        C  0.61774802  0.59204931  0.36526860     0.07160
C677        C  0.61883047  0.62329913  0.33292985    -0.02800
C678        C  0.65983199  0.63954907  0.32123898    -0.07250
C679        C  0.70059705  0.62502928  0.34024276     0.06270
C680        C  0.69908265  0.58675429  0.36149541    -0.02280
Br681      Br  0.74762424  0.54840479  0.36554318    -0.01970
H682        H  0.65768697  0.54541831  0.39676139     0.10190
H683        H  0.65935647  0.66618717  0.30038941     0.08200
Br684      Br  0.56640618  0.64874368  0.30727451    -0.02400
C685        C  0.55552897  0.72619484  0.57362717    -0.09040
C686        C  0.51728361  0.74079067  0.59728491     0.07160
C687        C  0.98164718  0.71342384  0.60333037    -0.02800
C688        C  0.98199719  0.67732938  0.57943293    -0.07250
C689        C  0.51782189  0.66622111  0.55108235     0.06270
C690        C  0.55600493  0.68971449  0.55112835    -0.02280
Br691      Br  0.61095368  0.67294507  0.52283491    -0.01970
H692        H  0.58593602  0.74271618  0.57223212     0.10190
H693        H  0.95298787  0.65878581  0.58130884     0.08200
Br694      Br  0.92905917  0.72455945  0.63967497    -0.02400
C695        C  0.95939091  0.20753267  0.37334641    -0.09040
C696        C  0.49606744  0.19278623  0.34717608     0.07160
C697        C  0.53527747  0.21667565  0.34755385    -0.02800
C698        C  0.53624695  0.25212761  0.37284992    -0.07250
C699        C  0.49997981  0.26434956  0.39972086     0.06270
C700        C  0.96125655  0.24198250  0.39923586    -0.02280
Br701      Br  0.90958331  0.25604320  0.43502661    -0.01970
H702        H  0.92933260  0.19132235  0.37788578     0.10190
H703        H  0.56645851  0.26919557  0.37344401     0.08200
Br704      Br  0.59035357  0.20332647  0.31661824    -0.02400
C705        C  0.73675228  0.21357925  0.83800042    -0.09040
C706        C  0.77089990  0.24074115  0.84877899     0.07160
C707        C  0.80496387  0.22647051  0.88002570    -0.02800
C708        C  0.80196201  0.18875142  0.89967127    -0.07250
C709        C  0.76538792  0.16469040  0.89250616     0.06270
C710        C  0.73315686  0.17671136  0.86008314    -0.02280
Br711      Br  0.68079708  0.14655650  0.84870108    -0.01970
H712        H  0.71045532  0.22236124  0.81429949     0.10190
H713        H  0.82736928  0.17898679  0.92394878     0.08200
Br714      Br  0.85388196  0.25443484  0.90703802    -0.02400
C715        C  0.72382837  0.24912453  0.55332581    -0.09040
C716        C  0.73743227  0.24728617  0.60005312     0.07160
C717        C  0.73871779  0.20726365  0.61811662    -0.02800
C718        C  0.74293578  0.17462391  0.58812307    -0.07250
C719        C  0.73892762  0.17908716  0.54052439     0.06270
C720        C  0.72628325  0.21679055  0.52362229    -0.02280
Br721      Br  0.70884220  0.22669884  0.46095564    -0.01970
H722        H  0.70970477  0.27615046  0.53898253     0.10190
H723        H  0.74689397  0.14499407  0.60239429     0.08200
Br724      Br  0.72201636  0.18961560  0.67866402    -0.02400
C725        C  0.79448233  0.31231526  0.55469768    -0.09040
C726        C  0.79076726  0.30816790  0.60328386     0.07160
C727        C  0.82887206  0.32291883  0.62822001    -0.02800
C728        C  0.86798171  0.33344318  0.60526723    -0.07250
C729        C  0.87075986  0.33502275  0.55761984     0.06270
C730        C  0.83251358  0.32594569  0.53228679    -0.02280
Br731      Br  0.82855253  0.33195598  0.46677169    -0.01970
H732        H  0.76690782  0.30788846  0.53237752     0.10190
H733        H  0.89646232  0.34267671  0.62526179     0.08200
Br734      Br  0.83410348  0.33803172  0.69163439    -0.02400
C735        C  0.70358517  0.34807439  0.58499960    -0.09040
C736        C  0.70326652  0.31432758  0.61419042     0.07160
C737        C  0.66043676  0.30169407  0.62902112    -0.02800
C738        C  0.62174009  0.31655648  0.60819569    -0.07250
C739        C  0.62342604  0.34450435  0.57293458     0.06270
C740        C  0.66452336  0.36206533  0.56305867    -0.02280
Br741      Br  0.66941332  0.40512347  0.52018962    -0.01970
H742        H  0.73416676  0.36283850  0.57699360     0.10190
H743        H  0.58997597  0.30450995  0.61828595     0.08200
Br744      Br  0.64957540  0.26477078  0.67761556    -0.02400
C745        C  0.73608402  0.31879577  0.70537857    -0.09040
C746        C  0.75221061  0.28681706  0.67791118     0.07160
C747        C  0.77908510  0.25807588  0.70097078    -0.02800
C748        C  0.77510545  0.25378316  0.74872441    -0.07250
C749        C  0.75984737  0.28568480  0.77648706     0.06270
C750        C  0.74442957  0.32036992  0.75262049    -0.02280
Br751      Br  0.73392737  0.37131644  0.78103448    -0.01970
H752        H  0.72134790  0.34508576  0.68958033     0.10190
H753        H  0.78987761  0.22735988  0.76404634     0.08200
Br754      Br  0.82606744  0.22764605  0.67116253    -0.02400
C755        C  0.88322662  0.32870263  0.83681617    -0.09040
C756        C  0.87921722  0.35352815  0.87471027     0.07160
C757        C  0.83616856  0.36339424  0.89075135    -0.02800
C758        C  0.79889441  0.34486690  0.87171845    -0.07250
C759        C  0.80368648  0.31213392  0.84138126     0.06270
C760        C  0.84743172  0.30643123  0.82172120    -0.02280
Br761      Br  0.86826556  0.26303824  0.78434292    -0.01970
H762        H  0.91615456  0.32180492  0.82325715     0.10190
H763        H  0.76659319  0.35506955  0.88339988     0.08200
Br764      Br  0.82632181  0.40115661  0.93904409    -0.02400
C765        C  0.67784061  0.30081649  0.82487593    -0.09040
C766        C  0.71710075  0.29787736  0.85239296     0.07160
C767        C  0.70984986  0.30339017  0.90051558    -0.02800
C768        C  0.66890580  0.31876913  0.91693871    -0.07250
C769        C  0.63255757  0.32665151  0.88764063     0.06270
C770        C  0.63729523  0.31656154  0.84103758    -0.02280
Br771      Br  0.59074742  0.32442967  0.79616410    -0.01970
H772        H  0.67764706  0.29083683  0.78977004     0.10190
H773        H  0.66517218  0.32371418  0.95346995     0.08200
Br774      Br  0.75221640  0.28965713  0.94768240    -0.02600
C775        C  0.97522475  0.26373933  0.08103844    -0.09040
C776        C  0.50741838  0.26968439  0.04719173     0.07160
C777        C  0.54214312  0.24156983  0.04200735    -0.02800
C778        C  0.54242171  0.20664572  0.06761036    -0.07250
C779        C  0.50668793  0.19669628  0.09724324     0.06270
C780        C  0.97447956  0.22808717  0.10625585    -0.02280
Br781      Br  0.92511956  0.22335683  0.14822236    -0.01970
H782        H  0.94897716  0.28593510  0.08605807     0.10190
H783        H  0.57112893  0.18736577  0.06257815     0.08200
Br784      Br  0.59063162  0.24930772  0.99995036    -0.02400
loop_ 
_geom_bond_atom_site_label_1 
_geom_bond_atom_site_label_2 
_geom_bond_distance 
_geom_bond_site_symmetry_2 
_ccdc_geom_bond_type 
O1            C4   1.266       .  A
O1           Cd6   2.452       .  S
C2           O11   1.263   1_554  A
C2            O7   1.267       .  A
C2          C384   1.472       .  S
O3            C9   1.266       .  A
O3           Cd6   2.448       .  S
C4           O12   1.264       .  A
C4           C47   1.460       .  S
C5           O10   1.265       .  A
C5            O8   1.267       .  A
C5          C377   1.493       .  S
Cd6          O13   2.494       .  S
Cd6          O12   2.454       .  S
Cd6         O403   2.424       .  S
Cd6         O399   2.507   1_556  S
Cd6         O402   2.466       .  S
Cd6         O400   2.494       .  S
O7         Cd398   2.507   1_554  S
O8         Cd398   2.494       .  S
C9           O13   1.264       .  A
C9          C364   1.482       .  S
O10        Cd398   2.466       .  S
O11        Cd398   2.424       .  S
C14         C324   1.609       .  S
C14         C334   1.612       .  S
C14         C344   1.572       .  S
C14         C354   1.556       .  S
C15         C314   1.572       .  S
C15         C357   1.572       .  S
C15         C367   1.574       .  S
C15         C374   1.594       .  S
O16          C19   1.267       .  A
O16         Cd21   2.509   1_455  S
C17          O26   1.263   1_655  A
C17          O22   1.267       .  A
C17          C30   1.461       .  S
O18          C24   1.267       .  A
O18        Cd413   2.457       .  S
C19         O419   1.262   1_455  A
C19         C307   1.472   1_455  S
C20          O25   1.266       .  A
C20          O23   1.265       .  A
C20         C347   1.477       .  S
Cd21         O26   2.445   1_655  S
Cd21         O22   2.466       .  S
Cd21         O25   2.436   1_655  S
Cd21         O23   2.476   1_655  S
Cd21        O410   2.457       .  S
Cd21        O420   2.483       .  S
Cd21        O419   2.421       .  S
C24          O28   1.265       .  A
C24         C337   1.490       .  S
O27         C411   1.262       .  A
O27        Cd413   2.421       .  S
O28        Cd413   2.483       .  S
O29          C32   1.265   1_655  A
O29         Cd34   2.512   1_655  S
C30          O39   1.262       .  A
C30          O35   1.266   1_655  A
O31          C37   1.262       .  A
O31        Cd426   2.443       .  S
C32         O432   1.261       .  A
C32         C297   1.483       .  S
C33          O38   1.265       .  A
C33          O36   1.269       .  A
C33         C284   1.485       .  S
Cd34         O39   2.455   1_455  S
Cd34         O35   2.462       .  S
Cd34         O38   2.444       .  S
Cd34         O36   2.465       .  S
Cd34        O423   2.443   1_455  S
Cd34        O433   2.460   1_455  S
Cd34        O432   2.451       .  S
C37          O41   1.264       .  A
C37         C277   1.481       .  S
O40         C424   1.261       .  A
O40        Cd426   2.451       .  S
O41        Cd426   2.460       .  S
C42         C234   1.608       .  S
C42         C244   1.591       .  S
C42         C254   1.601       .  S
C42         C267   1.547       .  S
C43         C224   1.574       .  S
C43         C264   1.575       .  S
C43         C274   1.572       .  S
C43         C287   1.563       .  S
O44          C47   1.267       .  A
O44         Cd49   2.466       .  S
C45          O54   1.262       .  A
C45          O50   1.267   1_455  A
C45         C214   1.479       .  S
O46          C52   1.266       .  A
O46         Cd49   2.458   1_554  S
C47          O55   1.263   1_556  A
C48          O53   1.267       .  A
C48          O51   1.265       .  A
C48         C257   1.480       .  S
Cd49         O56   2.464       .  S
Cd49         O55   2.440   1_556  S
Cd49        O446   2.423       .  S
Cd49        O442   2.508       .  S
Cd49        O445   2.440   1_556  S
Cd49        O443   2.459   1_556  S
O50        Cd441   2.508       .  S
O51        Cd441   2.459   1_454  S
C52          O56   1.264   1_554  A
C52         C247   1.488       .  S
O53        Cd441   2.440   1_454  S
O54        Cd441   2.423   1_455  S
O57          C60   1.267   1_554  A
O57         Cd62   2.472   1_554  S
C58          O67   1.262   1_554  A
C58          O63   1.268       .  A
C58         C237   1.477       .  S
O59          C65   1.265       .  A
O59         Cd62   2.448       .  S
C60          O68   1.262       .  A
C60         C101   1.462       .  S
C61          O66   1.268       .  A
C61          O64   1.266       .  A
C61         C207   1.488       .  S
Cd62         O69   2.494       .  S
Cd62         O68   2.442       .  S
Cd62         O67   2.449       .  S
Cd62         O63   2.506   1_556  S
Cd62         O66   2.440       .  S
Cd62         O64   2.475       .  S
C65          O69   1.264       .  A
C65         C197   1.483       .  S
C70         C167   1.570       .  S
C70         C187   1.584       .  S
C70         C294   1.573       .  S
C70         C569   1.599   1_455  S
C71         C184   1.561       .  S
C71         C194   1.581   1_655  S
C71         C217   1.586   1_655  S
C71         C596   1.577       .  S
O72          C75   1.269       .  A
O72         Cd77   2.523       .  S
C73          O82   1.263       .  A
C73          O78   1.267       .  A
C73          C88   1.462       .  S
O74          C80   1.269       .  A
O74         Cd77   2.455       .  S
C75          O83   1.263       .  A
C75         C227   1.479       .  S
C76          O81   1.266       .  A
C76          O79   1.264       .  A
C76         C174   1.467       .  S
Cd77         O84   2.452       .  S
Cd77         O83   2.414       .  S
Cd77         O82   2.450       .  S
Cd77         O78   2.463       .  S
Cd77         O81   2.484       .  S
Cd77         O79   2.429       .  S
C80          O84   1.265       .  A
C80         C164   1.486       .  S
O85          C88   1.267   1_545  A
O85         Cd90   2.468       .  S
C86          O95   1.262       .  A
C86          O91   1.268       .  A
C86         C327   1.490       .  S
O87          C93   1.265       .  A
O87         Cd90   2.442       .  S
C88          O96   1.263   1_565  A
C89          O94   1.264       .  A
C89          O92   1.266       .  A
C89         C144   1.475       .  S
Cd90         O97   2.440       .  S
Cd90         O96   2.446       .  S
Cd90         O95   2.447       .  S
Cd90         O91   2.512       .  S
Cd90         O94   2.445       .  S
Cd90         O92   2.440       .  S
C93          O97   1.266       .  A
C93         C157   1.473       .  S
C98         C124   1.571       .  S
C98         C134   1.579   1_455  S
C98         C387   1.583       .  S
C98         C509   1.606   1_455  S
C99         C137   1.573       .  S
C99         C147   1.568   1_655  S
C99         C304   1.582       .  S
C99         C546   1.569       .  S
O100        C103   1.268       .  A
O100       Cd105   2.541       .  S
C101        O110   1.264   1_566  A
C101        O106   1.267   1_565  A
O102        C108   1.266       .  A
O102       Cd105   2.457   1_554  S
C103        O111   1.261       .  A
C103        C317   1.482       .  S
C104        O109   1.266       .  A
C104        O107   1.262   1_554  A
C104        C127   1.485       .  S
Cd105       O112   2.489   1_556  S
Cd105       O111   2.410       .  S
Cd105       O110   2.452   1_556  S
Cd105       O106   2.456       .  S
Cd105       O109   2.456   1_556  S
Cd105       O107   2.462       .  S
C108        O112   1.267       .  A
C108        C114   1.476       .  S
C113        C114   1.397       .  A
C113        C118   1.412       .  A
C113        H120   1.084       .  S
C114        C115   1.395       .  A
C115        C116   1.388       .  A
C115       Br122   1.922       .  S
C116        C117   1.422       .  A
C116        H121   1.069       .  S
C117        C490   1.606       .  S
C117        C118   1.448       .  A
C118       Br119   1.938       .  S
C123        C124   1.424       .  A
C123        C128   1.397       .  A
C123        H130   1.082       .  S
C124        C125   1.436       .  A
C125        C126   1.398       .  A
C125       Br132   1.919       .  S
C126        C127   1.396       .  A
C126        H131   1.084       .  S
C127        C128   1.407       .  A
C128       Br129   1.921   1_554  S
C133        C138   1.396       .  A
C133        C526   1.409       .  A
C133        H140   1.058       .  S
C134        C135   1.438   1_655  A
C134        C525   1.409       .  A
C135        C136   1.401       .  A
C135       Br142   1.935       .  S
C136        C137   1.411   1_455  A
C136        H141   1.074       .  S
C137        C530   1.423       .  A
C138        C529   1.423       .  A
C138       Br139   1.928       .  S
C143        C144   1.395       .  A
C143        C148   1.393       .  A
C143        H150   1.084       .  S
C144        C145   1.405       .  A
C145        C146   1.397       .  A
C145       Br152   1.922       .  S
C146        C147   1.418       .  A
C146        H151   1.074       .  S
C147        C148   1.434       .  A
C148       Br149   1.927       .  S
C153        C154   1.420       .  A
C153        C158   1.393       .  A
C153        H160   1.078       .  S
C154        C491   1.569       .  S
C154        C155   1.430       .  A
C155        C156   1.397       .  A
C155       Br162   1.925       .  S
C156        C157   1.399       .  A
C156        H161   1.083       .  S
C157        C158   1.403       .  A
C158       Br159   1.922       .  S
C163        C164   1.398       .  A
C163        C168   1.401       .  A
C163        H170   1.084       .  S
C164        C165   1.408       .  A
C165        C166   1.396       .  A
C165       Br172   1.923       .  S
C166        C167   1.421       .  A
C166        H171   1.081       .  S
C167        C168   1.433       .  A
C168       Br169   1.918       .  S
C173        C174   1.398       .  A
C173        C178   1.409       .  A
C173        H180   1.084       .  S
C174        C175   1.394       .  A
C175        C176   1.387       .  A
C175       Br182   1.925       .  S
C176        C177   1.426       .  A
C176        H181   1.076       .  S
C177        C462   1.599       .  S
C177        C178   1.437       .  A
C178       Br179   1.934       .  S
C183        C188   1.401       .  A
C183        C576   1.407       .  A
C183        H190   1.078       .  S
C184        C185   1.422       .  A
C184        C575   1.407   1_655  A
C185        C186   1.400   1_655  A
C185       Br192   1.928       .  S
C186        C187   1.410       .  A
C186        H191   1.052   1_455  S
C187        C580   1.439       .  A
C188        C579   1.439       .  A
C188       Br189   1.934       .  S
C193        C194   1.421       .  A
C193        C198   1.406       .  A
C193        H200   1.078       .  S
C194        C195   1.437       .  A
C195        C196   1.392       .  A
C195       Br202   1.922       .  S
C196        C197   1.393       .  A
C196        H201   1.084       .  S
C197        C198   1.408       .  A
C198       Br199   1.920       .  S
C203        C204   1.421       .  A
C203        C208   1.398       .  A
C203        H210   1.082       .  S
C204        C463   1.577       .  S
C204        C205   1.442       .  A
C205        C206   1.400       .  A
C205       Br212   1.934       .  S
C206        C207   1.397       .  A
C206        H211   1.084       .  S
C207        C208   1.407       .  A
C208       Br209   1.921       .  S
C213        C218   1.406       .  A
C213        C606   1.399       .  A
C213        H220   1.084       .  S
C214        C215   1.401       .  A
C214        C605   1.399   1_455  A
C215        C216   1.390       .  A
C215       Br222   1.926       .  S
C216        C217   1.425       .  A
C216        H221   1.077       .  S
C217        C610   1.432   1_455  A
C218        C609   1.432       .  A
C218       Br219   1.915       .  S
C223        C224   1.426       .  A
C223        C228   1.403       .  A
C223        H230   1.083       .  S
C224        C225   1.441       .  A
C225        C226   1.397       .  A
C225       Br232   1.923       .  S
C226        C227   1.392       .  A
C226        H231   1.085       .  S
C227        C228   1.401       .  A
C228       Br229   1.917       .  S
C233        C234   1.431       .  A
C233        C238   1.393       .  A
C233        H240   1.078       .  S
C234        C235   1.441       .  A
C235        C236   1.409       .  A
C235       Br242   1.907       .  S
C236        C237   1.393       .  A
C236        H241   1.084       .  S
C237        C238   1.396       .  A
C238       Br239   1.921       .  S
C243        C244   1.423       .  A
C243        C248   1.395       .  A
C243        H250   1.083       .  S
C244        C245   1.440       .  A
C245        C246   1.402       .  A
C245       Br252   1.928       .  S
C246        C247   1.400       .  A
C246        H251   1.084       .  S
C247        C248   1.407       .  A
C248       Br249   1.923   1_554  S
C253        C254   1.423       .  A
C253        C258   1.400       .  A
C253        H260   1.073       .  S
C254        C255   1.437       .  A
C255        C256   1.397       .  A
C255       Br262   1.932       .  S
C256        C257   1.395       .  A
C256        H261   1.084       .  S
C257        C258   1.404       .  A
C258       Br259   1.922       .  S
C263        C264   1.417       .  A
C263        C268   1.396       .  A
C263        H270   1.082       .  S
C264        C265   1.430       .  A
C265        C266   1.401       .  A
C265       Br272   1.928       .  S
C266        C267   1.411       .  A
C266        H271   1.078       .  S
C267        C268   1.423       .  A
C268       Br269   1.926       .  S
C273        C274   1.420       .  A
C273        C278   1.394       .  A
C273        H280   1.074       .  S
C274        C275   1.431       .  A
C275        C276   1.398       .  A
C275       Br282   1.918       .  S
C276        C277   1.399       .  A
C276        H281   1.084       .  S
C277        C278   1.406       .  A
C278       Br279   1.925       .  S
C283        C284   1.401       .  A
C283        C288   1.401       .  A
C283        H290   1.084       .  S
C284        C285   1.411       .  A
C285        C286   1.399       .  A
C285       Br292   1.922       .  S
C286        C287   1.417       .  A
C286        H291   1.082       .  S
C287        C288   1.430       .  A
C288       Br289   1.927       .  S
C293        C294   1.418       .  A
C293        C298   1.394       .  A
C293        H300   1.079       .  S
C294        C687   1.437   1_455  A
C295        C296   1.403       .  A
C295        C686   1.437       .  A
C295       Br302   1.931       .  S
C296        C689   1.401       .  A
C296        H301   1.083       .  S
C297        C298   1.406       .  A
C297        C688   1.401   1_455  A
C298       Br299   1.917       .  S
C303        C308   1.388       .  A
C303        C696   1.420       .  A
C303        H310   1.072       .  S
C304        C305   1.439   1_655  A
C304        C695   1.420       .  A
C305        C306   1.406       .  A
C305       Br312   1.927       .  S
C306        C307   1.396   1_455  A
C306        H311   1.084       .  S
C307        C700   1.398       .  A
C308        C699   1.398       .  A
C308       Br309   1.920       .  S
C313        C314   1.423       .  A
C313        C318   1.403       .  A
C313        H320   1.082       .  S
C314        C315   1.440       .  A
C315        C316   1.397       .  A
C315       Br322   1.929       .  S
C316        C317   1.394       .  A
C316        H321   1.083       .  S
C317        C318   1.402       .  A
C318       Br319   1.918       .  S
C323        C324   1.421       .  A
C323        C328   1.394       .  A
C323        H330   1.078       .  S
C324        C325   1.445       .  A
C325        C326   1.410       .  A
C325       Br332   1.930       .  S
C326        C327   1.399       .  A
C326        H331   1.084       .  S
C327        C328   1.404       .  A
C328       Br329   1.924       .  S
C333        C334   1.427       .  A
C333        C338   1.400       .  A
C333        H340   1.064       .  S
C334        C335   1.451       .  A
C335        C336   1.402       .  A
C335       Br342   1.925       .  S
C336        C337   1.392       .  A
C336        H341   1.085       .  S
C337        C338   1.402       .  A
C338       Br339   1.922       .  S
C343        C344   1.418       .  A
C343        C348   1.404       .  A
C343        H350   1.078       .  S
C344        C345   1.429       .  A
C345        C346   1.390       .  A
C345       Br352   1.915       .  S
C346        C347   1.393       .  A
C346        H351   1.084       .  S
C347        C348   1.408       .  A
C348       Br349   1.919       .  S
C353        C354   1.421       .  A
C353        C358   1.400       .  A
C353        H360   1.082       .  S
C354        C355   1.413       .  A
C355        C356   1.404       .  A
C355       Br362   1.932       .  S
C356        C357   1.415       .  A
C356        H361   1.080       .  S
C357        C358   1.425       .  A
C358       Br359   1.927       .  S
C363        C364   1.391       .  A
C363        C368   1.394       .  A
C363        H370   1.084       .  S
C364        C365   1.406       .  A
C365        C366   1.406       .  A
C365       Br372   1.919       .  S
C366        C367   1.420       .  A
C366        H371   1.076       .  S
C367        C368   1.441       .  A
C368       Br369   1.919       .  S
C373        C374   1.424       .  A
C373        C378   1.398       .  A
C373        H380   1.078       .  S
C374        C375   1.431       .  A
C375        C376   1.406       .  A
C375       Br382   1.918       .  S
C376        C377   1.403       .  A
C376        H381   1.084       .  S
C377        C378   1.408       .  A
C378       Br379   1.924       .  S
C383        C388   1.406       .  A
C383        C776   1.398       .  A
C383        H390   1.083       .  S
C384        C385   1.400       .  A
C384        C775   1.398   1_455  A
C385        C386   1.391       .  A
C385       Br392   1.924   1_554  S
C386        C387   1.422       .  A
C386        H391   1.077       .  S
C387        C780   1.441   1_455  A
C388        C779   1.441       .  A
C388       Br389   1.930       .  S
O393        C396   1.266       .  A
O393       Cd398   2.452       .  S
C394        O403   1.263   1_554  A
C394        O399   1.267       .  A
C394        C776   1.472       .  S
O395        C401   1.266       .  A
O395       Cd398   2.448   1_655  S
C396        O404   1.264       .  A
C396        C439   1.460       .  S
C397        O402   1.265       .  A
C397        O400   1.267       .  A
C397        C769   1.493       .  S
Cd398       O405   2.494   1_455  S
Cd398       O404   2.454       .  S
C401        O405   1.264       .  A
C401        C756   1.482       .  S
C406        C716   1.609       .  S
C406        C726   1.612       .  S
C406        C736   1.572       .  S
C406        C746   1.556       .  S
C407        C706   1.572       .  S
C407        C749   1.572       .  S
C407        C759   1.574       .  S
C407        C766   1.594       .  S
O408        C411   1.267       .  A
O408       Cd413   2.509       .  S
C409        O418   1.263       .  A
C409        O414   1.267       .  A
C409        C422   1.461       .  S
O410        C416   1.267       .  A
C411        C699   1.472       .  S
C412        O417   1.266       .  A
C412        O415   1.265       .  A
C412        C739   1.477       .  S
Cd413       O418   2.445       .  S
Cd413       O414   2.466       .  S
Cd413       O417   2.436       .  S
Cd413       O415   2.476       .  S
C416        O420   1.265       .  A
C416        C729   1.490       .  S
O421        C424   1.265       .  A
O421       Cd426   2.512       .  S
C422        O431   1.262       .  A
C422        O427   1.266       .  A
O423        C429   1.262       .  A
C424        C689   1.483       .  S
C425        O430   1.265       .  A
C425        O428   1.269       .  A
C425        C676   1.485       .  S
Cd426       O431   2.455       .  S
Cd426       O427   2.462       .  S
Cd426       O430   2.444       .  S
Cd426       O428   2.465       .  S
C429        O433   1.264       .  A
C429        C669   1.481       .  S
C434        C626   1.608       .  S
C434        C636   1.591       .  S
C434        C646   1.601       .  S
C434        C659   1.547       .  S
C435        C616   1.574       .  S
C435        C656   1.575       .  S
C435        C666   1.572       .  S
C435        C679   1.563       .  S
O436        C439   1.267       .  A
O436       Cd441   2.466   1_455  S
C437        O446   1.262       .  A
C437        O442   1.267       .  A
C437        C606   1.479       .  S
O438        C444   1.266       .  A
O438       Cd441   2.458   1_554  S
C439        O447   1.263   1_456  A
C440        O445   1.267       .  A
C440        O443   1.265       .  A
C440        C649   1.480       .  S
Cd441       O448   2.464       .  S
Cd441       O447   2.440   1_556  S
C444        O448   1.264   1_554  A
C444        C639   1.488       .  S
O449        C452   1.267   1_554  A
O449       Cd454   2.472   1_554  S
C450        O459   1.262   1_554  A
C450        O455   1.268       .  A
C450        C629   1.477       .  S
O451        C457   1.265       .  A
O451       Cd454   2.448       .  S
C452        O460   1.262       .  A
C452        C493   1.462       .  S
C453        O458   1.268       .  A
C453        O456   1.266       .  A
C453        C599   1.488       .  S
Cd454       O461   2.494       .  S
Cd454       O460   2.442       .  S
Cd454       O459   2.449       .  S
Cd454       O455   2.506   1_556  S
Cd454       O458   2.440       .  S
Cd454       O456   2.475       .  S
C457        O461   1.264       .  A
C457        C589   1.483       .  S
C462        C559   1.570       .  S
C462        C579   1.584       .  S
C462        C686   1.573       .  S
C463        C576   1.561       .  S
C463        C586   1.581       .  S
C463        C609   1.586       .  S
O464        C467   1.269       .  A
O464       Cd469   2.523       .  S
C465        O474   1.263       .  A
C465        O470   1.267       .  A
C465        C480   1.462       .  S
O466        C472   1.269       .  A
O466       Cd469   2.455       .  S
C467        O475   1.263       .  A
C467        C619   1.479       .  S
C468        O473   1.266       .  A
C468        O471   1.264       .  A
C468        C566   1.467       .  S
Cd469       O476   2.452       .  S
Cd469       O475   2.414       .  S
Cd469       O474   2.450       .  S
Cd469       O470   2.463       .  S
Cd469       O473   2.484       .  S
Cd469       O471   2.429       .  S
C472        O476   1.265       .  A
C472        C556   1.486       .  S
O477        C480   1.267   1_545  A
O477       Cd482   2.468       .  S
C478        O487   1.262       .  A
C478        O483   1.268       .  A
C478        C719   1.490       .  S
O479        C485   1.265       .  A
O479       Cd482   2.442       .  S
C480        O488   1.263   1_565  A
C481        O486   1.264       .  A
C481        O484   1.266       .  A
C481        C536   1.475       .  S
Cd482       O489   2.440       .  S
Cd482       O488   2.446       .  S
Cd482       O487   2.447       .  S
Cd482       O483   2.512       .  S
Cd482       O486   2.445       .  S
Cd482       O484   2.440       .  S
C485        O489   1.266       .  A
C485        C549   1.473       .  S
C490        C516   1.571       .  S
C490        C526   1.579       .  S
C490        C779   1.583       .  S
C491        C529   1.573       .  S
C491        C539   1.568       .  S
C491        C696   1.582       .  S
O492        C495   1.268       .  A
O492       Cd497   2.541       .  S
C493        O502   1.264   1_566  A
C493        O498   1.267   1_565  A
O494        C500   1.266       .  A
O494       Cd497   2.457   1_554  S
C495        O503   1.261       .  A
C495        C709   1.482       .  S
C496        O501   1.266       .  A
C496        O499   1.262   1_554  A
C496        C519   1.485       .  S
Cd497       O504   2.489   1_556  S
Cd497       O503   2.410       .  S
Cd497       O502   2.452   1_556  S
Cd497       O498   2.456       .  S
Cd497       O501   2.456   1_556  S
Cd497       O499   2.462       .  S
C500        O504   1.267       .  A
C500        C506   1.476       .  S
C505        C506   1.397       .  A
C505        C510   1.412       .  A
C505        H512   1.084       .  S
C506        C507   1.395       .  A
C507        C508   1.388       .  A
C507       Br514   1.922       .  S
C508        C509   1.422       .  A
C508        H513   1.069       .  S
C509        C510   1.448       .  A
C510       Br511   1.938       .  S
C515        C516   1.424       .  A
C515        C520   1.397       .  A
C515        H522   1.082       .  S
C516        C517   1.436       .  A
C517        C518   1.398       .  A
C517       Br524   1.919       .  S
C518        C519   1.396       .  A
C518        H523   1.084       .  S
C519        C520   1.407       .  A
C520       Br521   1.921   1_554  S
C525        C530   1.396       .  A
C525        H532   1.058       .  S
C526        C527   1.438       .  A
C527        C528   1.401       .  A
C527       Br534   1.935       .  S
C528        C529   1.411       .  A
C528        H533   1.074       .  S
C530       Br531   1.928       .  S
C535        C536   1.395       .  A
C535        C540   1.393       .  A
C535        H542   1.084       .  S
C536        C537   1.405       .  A
C537        C538   1.397       .  A
C537       Br544   1.922       .  S
C538        C539   1.418       .  A
C538        H543   1.074       .  S
C539        C540   1.434       .  A
C540       Br541   1.927       .  S
C545        C546   1.420       .  A
C545        C550   1.393       .  A
C545        H552   1.078       .  S
C546        C547   1.430       .  A
C547        C548   1.397       .  A
C547       Br554   1.925       .  S
C548        C549   1.399       .  A
C548        H553   1.083       .  S
C549        C550   1.403       .  A
C550       Br551   1.922       .  S
C555        C556   1.398       .  A
C555        C560   1.401       .  A
C555        H562   1.084       .  S
C556        C557   1.408       .  A
C557        C558   1.396       .  A
C557       Br564   1.923       .  S
C558        C559   1.421       .  A
C558        H563   1.081       .  S
C559        C560   1.433       .  A
C560       Br561   1.918       .  S
C565        C566   1.398       .  A
C565        C570   1.409       .  A
C565        H572   1.084       .  S
C566        C567   1.394       .  A
C567        C568   1.387       .  A
C567       Br574   1.925       .  S
C568        C569   1.426       .  A
C568        H573   1.076       .  S
C569        C570   1.437       .  A
C570       Br571   1.934       .  S
C575        C580   1.401       .  A
C575        H582   1.078       .  S
C576        C577   1.422       .  A
C577        C578   1.400       .  A
C577       Br584   1.928       .  S
C578        C579   1.410       .  A
C578        H583   1.052       .  S
C580       Br581   1.934       .  S
C585        C586   1.421       .  A
C585        C590   1.406       .  A
C585        H592   1.078       .  S
C586        C587   1.437       .  A
C587        C588   1.392       .  A
C587       Br594   1.922       .  S
C588        C589   1.393       .  A
C588        H593   1.084       .  S
C589        C590   1.408       .  A
C590       Br591   1.920       .  S
C595        C596   1.421       .  A
C595        C600   1.398       .  A
C595        H602   1.082       .  S
C596        C597   1.442       .  A
C597        C598   1.400       .  A
C597       Br604   1.934       .  S
C598        C599   1.397       .  A
C598        H603   1.084       .  S
C599        C600   1.407       .  A
C600       Br601   1.921       .  S
C605        C610   1.406       .  A
C605        H612   1.084       .  S
C606        C607   1.401       .  A
C607        C608   1.390       .  A
C607       Br614   1.926       .  S
C608        C609   1.425       .  A
C608        H613   1.077       .  S
C610       Br611   1.915       .  S
C615        C616   1.426       .  A
C615        C620   1.403       .  A
C615        H622   1.083       .  S
C616        C617   1.441       .  A
C617        C618   1.397       .  A
C617       Br624   1.923       .  S
C618        C619   1.392       .  A
C618        H623   1.085       .  S
C619        C620   1.401       .  A
C620       Br621   1.917       .  S
C625        C626   1.431       .  A
C625        C630   1.393       .  A
C625        H632   1.078       .  S
C626        C627   1.441       .  A
C627        C628   1.409       .  A
C627       Br634   1.907       .  S
C628        C629   1.393       .  A
C628        H633   1.084       .  S
C629        C630   1.396       .  A
C630       Br631   1.921       .  S
C635        C636   1.423       .  A
C635        C640   1.395       .  A
C635        H642   1.083       .  S
C636        C637   1.440       .  A
C637        C638   1.402       .  A
C637       Br644   1.928       .  S
C638        C639   1.400       .  A
C638        H643   1.084       .  S
C639        C640   1.407       .  A
C640       Br641   1.923   1_554  S
C645        C646   1.423       .  A
C645        C650   1.400       .  A
C645        H652   1.073       .  S
C646        C647   1.437       .  A
C647        C648   1.397       .  A
C647       Br654   1.932       .  S
C648        C649   1.395       .  A
C648        H653   1.084       .  S
C649        C650   1.404       .  A
C650       Br651   1.922       .  S
C655        C656   1.417       .  A
C655        C660   1.396       .  A
C655        H662   1.082       .  S
C656        C657   1.430       .  A
C657        C658   1.401       .  A
C657       Br664   1.928       .  S
C658        C659   1.411       .  A
C658        H663   1.078       .  S
C659        C660   1.423       .  A
C660       Br661   1.926       .  S
C665        C666   1.420       .  A
C665        C670   1.394       .  A
C665        H672   1.074       .  S
C666        C667   1.431       .  A
C667        C668   1.398       .  A
C667       Br674   1.918       .  S
C668        C669   1.399       .  A
C668        H673   1.084       .  S
C669        C670   1.406       .  A
C670       Br671   1.925       .  S
C675        C676   1.401       .  A
C675        C680   1.401       .  A
C675        H682   1.084       .  S
C676        C677   1.411       .  A
C677        C678   1.399       .  A
C677       Br684   1.922       .  S
C678        C679   1.417       .  A
C678        H683   1.082       .  S
C679        C680   1.430       .  A
C680       Br681   1.927       .  S
C685        C686   1.418       .  A
C685        C690   1.394       .  A
C685        H692   1.079       .  S
C687        C688   1.403       .  A
C687       Br694   1.931       .  S
C688        H693   1.083       .  S
C689        C690   1.406       .  A
C690       Br691   1.917       .  S
C695        C700   1.388       .  A
C695        H702   1.072       .  S
C696        C697   1.439       .  A
C697        C698   1.406       .  A
C697       Br704   1.927       .  S
C698        C699   1.396       .  A
C698        H703   1.084       .  S
C700       Br701   1.920       .  S
C705        C706   1.423       .  A
C705        C710   1.403       .  A
C705        H712   1.082       .  S
C706        C707   1.440       .  A
C707        C708   1.397       .  A
C707       Br714   1.929       .  S
C708        C709   1.394       .  A
C708        H713   1.083       .  S
C709        C710   1.402       .  A
C710       Br711   1.918       .  S
C715        C716   1.421       .  A
C715        C720   1.394       .  A
C715        H722   1.078       .  S
C716        C717   1.445       .  A
C717        C718   1.410       .  A
C717       Br724   1.930       .  S
C718        C719   1.399       .  A
C718        H723   1.084       .  S
C719        C720   1.404       .  A
C720       Br721   1.924       .  S
C725        C726   1.427       .  A
C725        C730   1.400       .  A
C725        H732   1.064       .  S
C726        C727   1.451       .  A
C727        C728   1.402       .  A
C727       Br734   1.925       .  S
C728        C729   1.392       .  A
C728        H733   1.085       .  S
C729        C730   1.402       .  A
C730       Br731   1.922       .  S
C735        C736   1.418       .  A
C735        C740   1.404       .  A
C735        H742   1.078       .  S
C736        C737   1.429       .  A
C737        C738   1.390       .  A
C737       Br744   1.915       .  S
C738        C739   1.393       .  A
C738        H743   1.084       .  S
C739        C740   1.408       .  A
C740       Br741   1.919       .  S
C745        C746   1.421       .  A
C745        C750   1.400       .  A
C745        H752   1.082       .  S
C746        C747   1.413       .  A
C747        C748   1.404       .  A
C747       Br754   1.932       .  S
C748        C749   1.415       .  A
C748        H753   1.080       .  S
C749        C750   1.425       .  A
C750       Br751   1.927       .  S
C755        C756   1.391       .  A
C755        C760   1.394       .  A
C755        H762   1.084       .  S
C756        C757   1.406       .  A
C757        C758   1.406       .  A
C757       Br764   1.919       .  S
C758        C759   1.420       .  A
C758        H763   1.076       .  S
C759        C760   1.441       .  A
C760       Br761   1.919       .  S
C765        C766   1.424       .  A
C765        C770   1.398       .  A
C765        H772   1.078       .  S
C766        C767   1.431       .  A
C767        C768   1.406       .  A
C767       Br774   1.918       .  S
C768        C769   1.403       .  A
C768        H773   1.084       .  S
C769        C770   1.408       .  A
C770       Br771   1.924       .  S
C775        C780   1.406       .  A
C775        H782   1.083       .  S
C776        C777   1.400       .  A
C777        C778   1.391       .  A
C777       Br784   1.924   1_554  S
C778        C779   1.422       .  A
C778        H783   1.077       .  S
C780       Br781   1.930       .  S
