geometry optimzed in LAMMPS
_audit_creation_date              2020-11-30 
_audit_creation_method            'lammps2cif' 
_symmetry_space_group_name_H-M    'P1' 
_symmetry_Int_Tables_number       1 
_symmetry_cell_setting            triclinic 
loop_ 
_symmetry_equiv_pos_as_xyz 
  x,y,z 
_cell_length_a                    26.15261926 
_cell_length_b                    26.314111596275612 
_cell_length_c                    40.313970251409884 
_cell_angle_alpha                 90.21230118343291 
_cell_angle_beta                  89.80757042548812 
_cell_angle_gamma                 120.19446280529776 
loop_ 
_atom_site_label 
_atom_site_type_symbol 
_atom_site_fract_x 
_atom_site_fract_y 
_atom_site_fract_z 
_atom_site_charge 
C1          C  0.33240025  0.16577641  0.21777883     0.44700
H2          H  0.33263119  0.16584477  0.19020207    -0.04300
C3          C  0.33213498  0.16590087  0.28242449     0.44700
H4          H  0.33211868  0.16600036  0.31000330    -0.04300
C5          C  0.30612014  0.10397358  0.23263053    -0.18000
C6          C  0.39446172  0.20147646  0.23273565    -0.17800
C7          C  0.29665188  0.19199649  0.23273336    -0.18200
C8          C  0.30623243  0.10407867  0.26747421    -0.18100
C9          C  0.39427176  0.20184003  0.26747616    -0.17700
C10         C  0.29633604  0.19183636  0.26755876    -0.18000
C11         C  0.16674843  0.33290978  0.21761301     0.44700
H12         H  0.16660556  0.33248215  0.19003168    -0.04300
C13         C  0.16686394  0.33346790  0.28222729     0.44700
H14         H  0.16685731  0.33366724  0.30979954    -0.04300
C15         C  0.10474917  0.30700493  0.23272806    -0.18000
C16         C  0.19280271  0.29732095  0.23263485    -0.17800
C17         C  0.20270073  0.39489294  0.23227297    -0.18200
C18         C  0.10471461  0.30738830  0.26744226    -0.18100
C19         C  0.19262805  0.29740176  0.26737830    -0.17700
C20         C  0.20312407  0.39511612  0.26710081    -0.18000
C21         C  0.29572518  0.29494164  0.16977515     0.79500
N22         N  0.25579009  0.30705561  0.18419751    -0.78900
C23         C  0.22350908  0.27503250  0.21055058     0.81900
N24         N  0.22949103  0.22955064  0.22041925    -0.78800
C25         C  0.27507661  0.22312686  0.21055122     0.82000
N26         N  0.30754946  0.25496657  0.18409359    -0.80500
C27         C  0.28548716  0.28591165  0.33378279     0.79500
N28         N  0.30046555  0.24873676  0.31842244    -0.78900
C29         C  0.27268829  0.22122849  0.28983568     0.81900
N30         N  0.22956878  0.22992210  0.27850670    -0.78800
C31         C  0.22134442  0.27334231  0.28960690     0.82000
N32         N  0.24873616  0.30098255  0.31810867    -0.80500
C33         C  0.21273591  0.49849513  0.33334576     0.79500
N34         N  0.24993685  0.05092402  0.31827614    -0.78900
C35         C  0.27819047  0.05127715  0.28986450     0.81900
N36         N  0.27081621  0.99989011  0.27874703    -0.78800
C37         C  0.22696875  0.44787017  0.28944848     0.82000
N38         N  0.19820044  0.44695134  0.31764986    -0.80500
C39         C  0.21226456  0.99910103  0.16620892     0.79500
N40         N  0.24943799  0.05107819  0.18185765    -0.78900
C41         C  0.27729343  0.05106008  0.21017499     0.81900
N42         N  0.26946617  0.99950863  0.22091303    -0.78800
C43         C  0.22583467  0.44767037  0.20990384     0.82000
N44         N  0.19714741  0.44716445  0.18170110    -0.80500
C45         C  0.00033607  0.20385587  0.16997581     0.79500
N46         N  0.05232473  0.24393360  0.18440309    -0.78900
C47         C  0.05176278  0.27562028  0.21082643     0.82500
N48         N  0.99963616  0.26877351  0.22084272    -0.78800
C49         C  0.44776797  0.22335245  0.21076023     0.82000
N50         N  0.44788501  0.19151440  0.18423805    -0.80500
C51         C  0.99918116  0.20787203  0.33142617     0.79500
N52         N  0.05149537  0.24701138  0.31673758    -0.78900
C53         C  0.05141331  0.27720800  0.28956962     0.81900
N54         N  0.99936399  0.26972166  0.27908411    -0.78800
C55         C  0.44729608  0.22507432  0.28960638     0.82000
N56         N  0.44696125  0.19477723  0.31683723    -0.80500
O57         O  0.40402491  0.45743090  0.46163483    -0.82600
C58         C  0.09510481  0.00609368  0.04543970     0.96800
O59         O  0.06776728  0.46063530  0.02780195    -0.71700
O60         O  0.45603727  0.40969096  0.03932218    -0.75300
Al61       Al  0.99904740  0.43390602  0.49982498     1.49000
C62         C  0.40920875  0.40914144  0.04690486     0.92000
O63         O  0.45168264  0.04723915  0.03866504    -0.81500
O64         O  0.04904704  0.09473068  0.45982798    -0.75100
Al65       Al  0.43165411  0.50249345  0.00018844     1.90100
O66         O  0.04367158  0.11188875  0.02726454    -0.74100
O67         O  0.10839742  0.04215209  0.46971428    -0.74000
O68         O  0.09564342  0.05228228  0.03730173    -0.79600
O69         O  0.04216356  0.45052092  0.46039326    -0.77800
O70         O  0.99963199  0.00187378  0.49945794    -1.14000
O71         O  0.42997657  0.39208260  0.47193012    -0.73200
C72         C  0.40331492  0.41086221  0.45401428     0.97600
C73         C  0.99850272  0.09395814  0.04554703     0.94000
Al74       Al  0.06847187  0.06960727  0.49856336     1.55600
O75         O  0.39059886  0.43589980  0.02914006    -0.77800
C76         C  0.08872214  0.49642890  0.45218909     0.98100
C77         C  0.00290531  0.09628038  0.45344248     0.93000
O78         O  0.45755330  0.06929550  0.47156856    -0.83100
C79         C  0.99891744  0.17727444  0.36191766    -0.06900
C80         C  0.46163720  0.17360954  0.38808294    -0.18000
C81         C  0.46334890  0.14980373  0.41877426     0.10300
C82         C  0.00186290  0.12727181  0.42314830    -0.06800
C83         C  0.03858695  0.13054772  0.39667901    -0.18000
C84         C  0.03718185  0.15462988  0.36620960     0.10300
S85         S  0.41803683  0.15276641  0.45165107    -0.33000
S86         S  0.08312292  0.15222359  0.33342778    -0.33000
H87         H  0.04247271  0.14161887  0.30782676     0.28300
H88         H  0.46111749  0.16784913  0.47644822     0.28300
H89         H  0.43265464  0.19159599  0.38502241     0.18900
H90         H  0.06736793  0.11223820  0.39927416     0.18900
C91         C  0.00131950  0.17400270  0.13922461    -0.06900
C92         C  0.04387411  0.20724936  0.11502510    -0.18000
C93         C  0.04341061  0.18368993  0.08379873     0.10300
C94         C  0.00006688  0.12482840  0.07664539    -0.06800
C95         C  0.45843035  0.09141828  0.10133251    -0.18000
C96         C  0.45902878  0.11487047  0.13244771     0.10300
S97         S  0.09782929  0.23196769  0.05417954    -0.33000
S98         S  0.40664827  0.06573009  0.16274318    -0.33000
H99         H  0.44530129  0.08976999  0.18990381     0.28300
H100        H  0.05751337  0.21425693  0.02766549     0.28300
H101        H  0.07637298  0.25273140  0.11997842     0.18900
H102        H  0.42608130  0.04568371  0.09690025     0.18900
C103        C  0.12644131  0.00558554  0.07613076    -0.06900
C104        C  0.13809389  0.45976816  0.08107001    -0.18000
C105        C  0.16653805  0.45655055  0.10974970     0.10300
C106        C  0.18373013  0.00000288  0.13461524    -0.06800
C107        C  0.17261899  0.04625277  0.12958561    -0.18000
C108        C  0.14369434  0.04917428  0.10127385     0.10300
S109        S  0.18184524  0.39710700  0.11211223    -0.33000
S110        S  0.12702079  0.10778920  0.10050998    -0.33000
H111        H  0.06635052  0.06882973  0.09520072     0.28300
H112        H  0.23907587  0.43192751  0.12521472     0.28300
H113        H  0.12561013  0.42612940  0.06220329     0.18900
H114        H  0.18457665  0.07963508  0.14857392     0.18900
C115        C  0.12008406  0.49607990  0.42167971    -0.06900
C116        C  0.18184532  0.03105479  0.42037258    -0.18000
C117        C  0.21354850  0.03104882  0.39232939     0.10300
C118        C  0.18277260  0.49713232  0.36443714    -0.06800
C119        C  0.12131485  0.46118182  0.36588147    -0.18000
C120        C  0.08964115  0.46051800  0.39387711     0.10300
S121        S  0.29318715  0.07179785  0.39448844    -0.33000
S122        S  0.01035961  0.41582472  0.39126514    -0.33000
H123        H  0.00092005  0.45943255  0.40510313     0.28300
H124        H  0.30228324  0.03371233  0.37398559     0.28300
H125        H  0.20585384  0.05724929  0.44172270     0.18900
H126        H  0.09748152  0.43478975  0.34452676     0.18900
C127        C  0.31411696  0.31566175  0.36518524    -0.06900
C128        C  0.33133818  0.37510365  0.36856590    -0.18000
C129        C  0.36047130  0.40706284  0.39684651     0.10300
C130        C  0.37190759  0.37883875  0.42342597    -0.06800
C131        C  0.35414813  0.31898301  0.42012006    -0.18000
C132        C  0.32489795  0.28707708  0.39158279     0.10300
S133        S  0.38415834  0.48432537  0.39591362    -0.33000
S134        S  0.29991489  0.20960841  0.39120682    -0.33000
H135        H  0.24643697  0.19290025  0.37465969     0.28300
H136        H  0.44245797  0.50231625  0.40530656     0.28300
H137        H  0.32375176  0.39766414  0.34840280     0.18900
H138        H  0.36208525  0.29648917  0.44015360     0.18900
C139        C  0.32644026  0.32615613  0.13920877    -0.06900
C140        C  0.29319723  0.33446494  0.11475252    -0.18000
C141        C  0.31791271  0.35950768  0.08405598     0.10300
C142        C  0.37812166  0.37861440  0.07775811    -0.06800
C143        C  0.41147543  0.37093602  0.10254675    -0.18000
C144        C  0.38663164  0.34541681  0.13306903     0.10300
S145        S  0.26923594  0.36249672  0.05359843    -0.33000
S146        S  0.43505327  0.34146885  0.16344862    -0.33000
H147        H  0.40973114  0.35414960  0.19079239     0.28300
H148        H  0.29030255  0.34249155  0.02738373     0.28300
H149        H  0.24671051  0.31908781  0.11907326     0.18900
H150        H  0.45804619  0.38638128  0.09853972     0.18900
C151        C  0.33239935  0.16577725  0.71777986     0.44700
H152        H  0.33263034  0.16584574  0.69020310    -0.04300
C153        C  0.33213394  0.16590153  0.78242545     0.44700
H154        H  0.33211757  0.16600098  0.81000425    -0.04300
C155        C  0.30612133  0.10397463  0.73263139    -0.18000
C156        C  0.39446056  0.20147891  0.73273662    -0.17800
C157        C  0.29664920  0.19199530  0.73273437    -0.18200
C158        C  0.30623357  0.10407948  0.76747509    -0.18100
C159        C  0.39427061  0.20184263  0.76747714    -0.17700
C160        C  0.29633314  0.19183508  0.76755976    -0.18000
C161        C  0.16674712  0.33290976  0.71761330     0.44700
H162        H  0.16660420  0.33248209  0.69003201    -0.04300
C163        C  0.16686270  0.33346819  0.78222752     0.44700
H164        H  0.16685613  0.33366763  0.80979978    -0.04300
C165        C  0.10474792  0.30700628  0.73272835    -0.18000
C166        C  0.19279995  0.29731967  0.73263506    -0.17800
C167        C  0.20270104  0.39489286  0.73227331    -0.18200
C168        C  0.10471347  0.30738997  0.76744258    -0.18100
C169        C  0.19262524  0.29740057  0.76737850    -0.17700
C170        C  0.20312418  0.39511630  0.76710108    -0.18000
C171        C  0.29572104  0.29493804  0.66977513     0.79500
N172        N  0.25578590  0.30705232  0.68419718    -0.78900
C173        C  0.22350566  0.27503036  0.71055079     0.81900
N174        N  0.22948824  0.22954923  0.72042015    -0.78800
C175        C  0.27507351  0.22312502  0.71055209     0.82000
N176        N  0.30754586  0.25496381  0.68409413    -0.80500
C177        C  0.28548547  0.28591267  0.83378255     0.79500
N178        N  0.30046303  0.24873660  0.81842292    -0.78900
C179        C  0.27268486  0.22122692  0.78983662     0.81900
N180        N  0.22956488  0.22991997  0.77850764    -0.78800
C181        C  0.22134138  0.27334118  0.78960720     0.82000
N182        N  0.24873437  0.30098306  0.81810833    -0.80500
C183        C  0.21273494  0.49849625  0.83334508     0.79500
N184        N  0.24993925  0.05092453  0.81827711    -0.78900
C185        C  0.27819265  0.05127781  0.78986540     0.81900
N186        N  0.27081796  0.99989068  0.77874765    -0.78800
C187        C  0.22696891  0.44787072  0.78944857     0.82000
N188        N  0.19820006  0.44695225  0.81764963    -0.80500
C189        C  0.21227025  0.99910368  0.66620801     0.79500
N190        N  0.24944319  0.05108044  0.68185727    -0.78900
C191        C  0.27729607  0.05106158  0.71017549     0.81900
N192        N  0.26946718  0.99950979  0.72091383    -0.78800
C193        C  0.22583555  0.44767009  0.70990415     0.82000
N194        N  0.19714771  0.44716366  0.68170168    -0.80500
C195        C  0.00033363  0.20385693  0.66997643     0.79500
N196        N  0.05232258  0.24393460  0.68440353    -0.78900
C197        C  0.05176127  0.27562186  0.71082679     0.82500
N198        N  0.99963493  0.26877558  0.72084322    -0.78800
C199        C  0.44776651  0.22335466  0.71076099     0.82000
N200        N  0.44788293  0.19151608  0.68423889    -0.80500
C201        C  0.99918021  0.20787641  0.83142745     0.79500
N202        N  0.05149435  0.24701487  0.81673846    -0.78900
C203        C  0.05141229  0.27721079  0.78957015     0.81900
N204        N  0.99936299  0.26972452  0.77908462    -0.78800
C205        C  0.44729500  0.22507788  0.78960739     0.82000
N206        N  0.44696022  0.19478165  0.81683864    -0.80500
O207        O  0.40402355  0.45743484  0.96163312    -0.82600
C208        C  0.09510887  0.00609615  0.54543931     0.96800
O209        O  0.06776865  0.46063318  0.52780313    -0.71700
O210        O  0.45603863  0.40968779  0.53932376    -0.75300
Al211      Al  0.99904578  0.43390878  0.99982359     1.49000
C212        C  0.40921013  0.40913852  0.54690629     0.92000
O213        O  0.45168304  0.04723822  0.53866601    -0.81500
O214        O  0.04904578  0.09472940  0.95982707    -0.75100
Al215      Al  0.43165574  0.50249051  0.50018957     1.90100
O216        O  0.04367220  0.11188867  0.52726590    -0.74100
O217        O  0.10839645  0.04215096  0.96971449    -0.74000
O218        O  0.09564596  0.05228396  0.53730163    -0.79600
O219        O  0.04216175  0.45052341  0.96039189    -0.77800
O220        O  0.99962991  0.00187242  0.99945742    -1.14000
O221        O  0.42997472  0.39208606  0.97192877    -0.73200
C222        C  0.40331362  0.41086603  0.95401272     0.97600
C223        C  0.99850305  0.09395717  0.54554842     0.94000
Al224      Al  0.06847030  0.06960601  0.99856286     1.55600
O225        O  0.39060085  0.43589770  0.52914174    -0.77800
C226        C  0.08871988  0.49643151  0.95218737     0.98100
C227        C  0.00290381  0.09627878  0.95344150     0.93000
O228        O  0.45755148  0.06929325  0.97156735    -0.83100
C229        C  0.99891653  0.17727785  0.86191849    -0.06900
C230        C  0.46163843  0.17361448  0.88808475    -0.18000
C231        C  0.46334977  0.14980645  0.91877539     0.10300
C232        C  0.00186147  0.12727130  0.92314779    -0.06800
C233        C  0.03858315  0.13054559  0.89667761    -0.18000
C234        C  0.03717812  0.15462957  0.86620879     0.10300
S235        S  0.41804014  0.15277007  0.95165338    -0.33000
S236        S  0.08311520  0.15222058  0.83342543    -0.33000
H237        H  0.04246403  0.14161892  0.80782545     0.28300
H238        H  0.46112103  0.16784924  0.97644999     0.28300
H239        H  0.43265782  0.19160328  0.88502538     0.18900
H240        H  0.06736196  0.11223340  0.89927163     0.18900
C241        C  0.00131656  0.17400292  0.63922534    -0.06900
C242        C  0.04387184  0.20724903  0.61502600    -0.18000
C243        C  0.04340918  0.18368899  0.58379996     0.10300
C244        C  0.00006623  0.12482719  0.57664679    -0.06800
C245        C  0.45842859  0.09141757  0.60133362    -0.18000
C246        C  0.45902557  0.11487062  0.63244844     0.10300
S247        S  0.09782730  0.23196693  0.55418062    -0.33000
S248        S  0.40664262  0.06573129  0.66274334    -0.33000
H249        H  0.44529425  0.08977040  0.68990458     0.28300
H250        H  0.05751087  0.21425577  0.52766679     0.28300
H251        H  0.07637028  0.25273088  0.61997908     0.18900
H252        H  0.42607960  0.04568302  0.59690135     0.18900
C253        C  0.12644796  0.00558938  0.57612956    -0.06900
C254        C  0.13809702  0.45976793  0.58107034    -0.18000
C255        C  0.16654117  0.45655063  0.60975000     0.10300
C256        C  0.18373751  0.00000642  0.63461373    -0.06800
C257        C  0.17263637  0.04626236  0.62958141    -0.18000
C258        C  0.14371161  0.04918436  0.60126985     0.10300
S259        S  0.18185392  0.39711056  0.61211140    -0.33000
S260        S  0.12705244  0.10780915  0.60050291    -0.33000
H261        H  0.06637839  0.06885671  0.59520103     0.28300
H262        H  0.23908258  0.43193256  0.62521607     0.28300
H263        H  0.12561703  0.42613143  0.56220267     0.18900
H264        H  0.18460156  0.07964930  0.64856755     0.18900
C265        C  0.12008181  0.49608223  0.92167805    -0.06900
C266        C  0.18184530  0.03105569  0.92037288    -0.18000
C267        C  0.21354930  0.03105039  0.89232995     0.10300
C268        C  0.18277125  0.49713396  0.86443613    -0.06800
C269        C  0.12131390  0.46118070  0.86588095    -0.18000
C270        C  0.08963975  0.46051684  0.89387633     0.10300
S271        S  0.29318797  0.07180255  0.89448915    -0.33000
S272        S  0.01035866  0.41581816  0.89126507    -0.33000
H273        H  0.00091577  0.45942470  0.90510143     0.28300
H274        H  0.30228660  0.03371887  0.87398618     0.28300
H275        H  0.20585338  0.05725066  0.94172321     0.18900
H276        H  0.09748115  0.43478608  0.84452683     0.18900
C277        C  0.31411616  0.31566423  0.86518429    -0.06900
C278        C  0.33134612  0.37510876  0.86856198    -0.18000
C279        C  0.36047898  0.40706846  0.89684255     0.10300
C280        C  0.37190694  0.37884254  0.92342440    -0.06800
C281        C  0.35413902  0.31898432  0.92012121    -0.18000
C282        C  0.32488811  0.28707767  0.89158429     0.10300
S283        S  0.38417470  0.48433300  0.89590707    -0.33000
S284        S  0.29989137  0.20960590  0.89121191    -0.33000
H285        H  0.24641875  0.19290505  0.87466063     0.28300
H286        H  0.44246964  0.50231962  0.90530782     0.28300
H287        H  0.32376595  0.39766995  0.84839706     0.18900
H288        H  0.36206929  0.29648917  0.94015678     0.18900
C289        C  0.32643691  0.32615225  0.63920898    -0.06900
C290        C  0.29319302  0.33445370  0.61475019    -0.18000
C291        C  0.31791040  0.35949662  0.58405400     0.10300
C292        C  0.37812189  0.37861087  0.57775911    -0.06800
C293        C  0.41147643  0.37093953  0.60255019    -0.18000
C294        C  0.38663072  0.34542026  0.63307221     0.10300
S295        S  0.26923332  0.36247626  0.55359306    -0.33000
S296        S  0.43505258  0.34148192  0.66345547    -0.33000
H297        H  0.40972095  0.35415617  0.69079715     0.28300
H298        H  0.29031160  0.34247986  0.52737986     0.28300
H299        H  0.24670412  0.31907074  0.61906887     0.18900
H300        H  0.45804858  0.38639056  0.59854529     0.18900
C301        C  0.33217155  0.66580985  0.21779612     0.44700
H302        H  0.33240105  0.66587122  0.19021921    -0.04300
C303        C  0.33190213  0.66593319  0.28244104     0.44700
H304        H  0.33188663  0.66602850  0.31001975    -0.04300
C305        C  0.30596737  0.60401890  0.23265166    -0.18000
C306        C  0.39422318  0.70155695  0.23274942    -0.17800
C307        C  0.29636808  0.69197259  0.23274726    -0.18200
C308        C  0.30607197  0.60412139  0.26748997    -0.18100
C309        C  0.39403356  0.70192718  0.26749029    -0.17700
C310        C  0.29603696  0.69179847  0.26757673    -0.18000
C311        C  0.16648348  0.83287954  0.21761324     0.44700
H312        H  0.16632849  0.83244713  0.19003196    -0.04300
C313        C  0.16661198  0.83344940  0.28222427     0.44700
H314        H  0.16660934  0.83365471  0.30979660    -0.04300
C315        C  0.10450145  0.80708949  0.23273449    -0.18000
C316        C  0.19242875  0.79719385  0.23262745    -0.17800
C317        C  0.20255695  0.89484842  0.23226843    -0.18200
C318        C  0.10447244  0.80748039  0.26744662    -0.18100
C319        C  0.19225651  0.79727738  0.26737419    -0.17700
C320        C  0.20298359  0.89508123  0.26709619    -0.18000
C321        C  0.29524781  0.79474812  0.16971891     0.79500
N322        N  0.25529808  0.80684343  0.18413957    -0.78900
C323        C  0.22308971  0.77487072  0.21052782     0.81900
N324        N  0.22914006  0.72944354  0.22042047    -0.78800
C325        C  0.27473813  0.72304608  0.21055047     0.82000
N326        N  0.30715962  0.75485232  0.18406799    -0.80500
C327        C  0.28490981  0.78564962  0.33384949     0.79500
N328        N  0.29994386  0.74850779  0.31849543    -0.78900
C329        C  0.27228114  0.72108526  0.28986490     0.81900
N330        N  0.22919905  0.72980261  0.27850247    -0.78800
C331        C  0.22091307  0.77317476  0.28961447     0.82000
N332        N  0.24821012  0.80075256  0.31814799    -0.80500
C333        C  0.21271887  0.99853036  0.33331934     0.79500
N334        N  0.24986292  0.55090503  0.31829320    -0.78900
C335        C  0.27809272  0.55130902  0.28986556     0.81900
N336        N  0.27077057  0.49995608  0.27872921    -0.78800
C337        C  0.22692134  0.94783737  0.28944852     0.82000
N338        N  0.19812806  0.94697276  0.31762718    -0.80500
C339        C  0.21197900  0.49912288  0.16631429     0.79500
N340        N  0.24917228  0.55109785  0.18194596    -0.78900
C341        C  0.27717478  0.55111106  0.21020166     0.81900
N342        N  0.26950162  0.49958548  0.22089215    -0.78800
C343        C  0.22583570  0.94761650  0.20988801     0.82000
N344        N  0.19731178  0.94713482  0.18162278    -0.80500
C345        C  0.00010663  0.70389429  0.17000622     0.79500
N346        N  0.05208410  0.74398898  0.18443187    -0.78900
C347        C  0.05151564  0.77569622  0.21084069     0.82500
N348        N  0.99938818  0.76885059  0.22085204    -0.78800
C349        C  0.44752600  0.72341668  0.21077383     0.82000
N350        N  0.44764970  0.69155507  0.18426171    -0.80500
C351        C  0.99895723  0.70791025  0.33141010     0.79500
N352        N  0.05126295  0.74708434  0.31672971    -0.78900
C353        C  0.05117527  0.77730892  0.28957700     0.81900
N354        N  0.99912185  0.76982613  0.27909918    -0.78800
C355        C  0.44705936  0.72515855  0.28961656     0.82000
N356        N  0.44673488  0.69482689  0.31682950    -0.80500
O357        O  0.40384858  0.95729596  0.46161071    -0.82600
C358        C  0.09528393  0.50648133  0.04544532     0.96800
O359        O  0.06749061  0.96022562  0.02781967    -0.71700
O360        O  0.45571373  0.90938087  0.03929153    -0.75300
Al361      Al  0.99879834  0.93360976  0.49980054     1.49000
C362        C  0.40892791  0.90892506  0.04687502     0.92000
O363        O  0.45174629  0.54737100  0.03867978    -0.81500
O364        O  0.04907208  0.59493242  0.45980749    -0.75100
Al365      Al  0.43154341  0.00235166  0.00017097     1.90100
O366        O  0.04368708  0.61213889  0.02725609    -0.74100
O367        O  0.10855131  0.54246988  0.46970378    -0.74000
O368        O  0.09578056  0.55264996  0.03730896    -0.79600
O369        O  0.04197771  0.95022664  0.46036391    -0.77800
O370        O  0.99978686  0.50211917  0.49946918    -1.14000
O371        O  0.42973978  0.89188644  0.47187394    -0.73200
C372        C  0.40307315  0.91069639  0.45398327     0.97600
C373        C  0.99852438  0.59413299  0.04555686     0.94000
Al374      Al  0.06857155  0.56989812  0.49855603     1.55600
O375        O  0.39039680  0.93576446  0.02912007    -0.77800
C376        C  0.08855692  0.99614290  0.45217768     0.98100
C377        C  0.00288469  0.59640413  0.45342992     0.93000
O378        O  0.45756850  0.56941071  0.47158220    -0.83100
C379        C  0.99871087  0.67727917  0.36188751    -0.06900
C380        C  0.46131548  0.67343695  0.38803019    -0.18000
C381        C  0.46306845  0.64965555  0.41872249     0.10300
C382        C  0.00175115  0.62732835  0.42312356    -0.06800
C383        C  0.03856876  0.63075089  0.39667065    -0.18000
C384        C  0.03712073  0.65480842  0.36619994     0.10300
S385        S  0.41758461  0.65239577  0.45156963    -0.33000
S386        S  0.08321841  0.65260594  0.33344598    -0.33000
H387        H  0.04258101  0.64189927  0.30782082     0.28300
H388        H  0.46069953  0.66773839  0.47637473     0.28300
H389        H  0.43221474  0.69128243  0.38495619     0.18900
H390        H  0.06747557  0.61258987  0.39928112     0.18900
C391        C  0.00113101  0.67406344  0.13925154    -0.06900
C392        C  0.04374951  0.70733070  0.11508339    -0.18000
C393        C  0.04335655  0.68381278  0.08385485     0.10300
C394        C  0.00002977  0.62496278  0.07666589    -0.06800
C395        C  0.45833313  0.59152559  0.10132548    -0.18000
C396        C  0.45885045  0.61494291  0.13244133     0.10300
S397        S  0.09783537  0.73213350  0.05427635    -0.33000
S398        S  0.40637639  0.56577688  0.16269261    -0.33000
H399        H  0.44495709  0.58976601  0.18988646     0.28300
H400        H  0.05754950  0.71451654  0.02775121     0.28300
H401        H  0.07624692  0.75280638  0.12006059     0.18900
H402        H  0.42598635  0.54579690  0.09686981     0.18900
C403        C  0.12650890  0.50591671  0.07616656    -0.06900
C404        C  0.13831723  0.95961597  0.08097178    -0.18000
C405        C  0.16694420  0.95654082  0.10961471     0.10300
C406        C  0.18342670  0.50004812  0.13473443    -0.06800
C407        C  0.17257084  0.54646104  0.12965567    -0.18000
C408        C  0.14385111  0.54954179  0.10129333     0.10300
S409        S  0.18259324  0.89732076  0.11192461    -0.33000
S410        S  0.12760443  0.60844472  0.10042507    -0.33000
H411        H  0.06686643  0.56969540  0.09520077     0.28300
H412        H  0.23970368  0.93223912  0.12515834     0.28300
H413        H  0.12591964  0.92601972  0.06208740     0.18900
H414        H  0.18462080  0.57988757  0.14862602     0.18900
C415        C  0.11994118  0.99589029  0.42165586    -0.06900
C416        C  0.18196861  0.53137873  0.42033106    -0.18000
C417        C  0.21363862  0.53125237  0.39230186     0.10300
C418        C  0.18270090  0.99718415  0.36438804    -0.06800
C419        C  0.12121171  0.96140737  0.36575435    -0.18000
C420        C  0.08950525  0.96062918  0.39376313     0.10300
S421        S  0.29327799  0.57219594  0.39437872    -0.33000
S422        S  0.01021137  0.91619227  0.39106631    -0.33000
H423        H  0.00092460  0.95968002  0.40520859     0.28300
H424        H  0.30243533  0.53404089  0.37397304     0.28300
H425        H  0.20599260  0.55777954  0.44161914     0.18900
H426        H  0.09739202  0.93522087  0.34433838     0.18900
C427        C  0.31352248  0.81541404  0.36524666    -0.06900
C428        C  0.33117240  0.87497591  0.36851153    -0.18000
C429        C  0.36039352  0.90695922  0.39677119     0.10300
C430        C  0.37156099  0.87865798  0.42342034    -0.06800
C431        C  0.35332405  0.81866813  0.42023676    -0.18000
C432        C  0.32389625  0.78672202  0.39174235     0.10300
S433        S  0.38441626  0.98430118  0.39574479    -0.33000
S434        S  0.29809031  0.70907748  0.39154933    -0.33000
H435        H  0.24492849  0.69282237  0.37476247     0.28300
H436        H  0.44254531  0.00217278  0.40541740     0.28300
H437        H  0.32382786  0.89758601  0.34828039     0.18900
H438        H  0.36097577  0.79610204  0.44034493     0.18900
C439        C  0.32597692  0.82597462  0.13915593    -0.06900
C440        C  0.29267937  0.83393315  0.11458311    -0.18000
C441        C  0.31747636  0.85898119  0.08389494     0.10300
C442        C  0.37779685  0.87842769  0.07772559    -0.06800
C443        C  0.41119816  0.87111479  0.10263267    -0.18000
C444        C  0.38628482  0.84561181  0.13314897     0.10300
S445        S  0.26879218  0.86152978  0.05327431    -0.33000
S446        S  0.43474359  0.84216994  0.16370026    -0.33000
H447        H  0.40898037  0.85456827  0.19093888     0.28300
H448        H  0.29039042  0.84191380  0.02713510     0.28300
H449        H  0.24611214  0.81827876  0.11881066     0.18900
H450        H  0.45784885  0.88684318  0.09871910     0.18900
C451        C  0.33217030  0.66580997  0.71779539     0.44700
H452        H  0.33239952  0.66587102  0.69021850    -0.04300
C453        C  0.33190110  0.66593397  0.78244027     0.44700
H454        H  0.33188567  0.66602957  0.81001900    -0.04300
C455        C  0.30596719  0.60401917  0.73265121    -0.18000
C456        C  0.39422203  0.70155804  0.73274848    -0.17800
C457        C  0.29636628  0.69197235  0.73274648    -0.18200
C458        C  0.30607168  0.60412202  0.76748944    -0.18100
C459        C  0.39403243  0.70192854  0.76748940    -0.17700
C460        C  0.29603533  0.69179858  0.76757590    -0.18000
C461        C  0.16648294  0.83288107  0.71761258     0.44700
H462        H  0.16632850  0.83244911  0.69003138    -0.04300
C463        C  0.16661057  0.83345000  0.78222361     0.44700
H464        H  0.16660758  0.83365483  0.80979580    -0.04300
C465        C  0.10450064  0.80709175  0.73273350    -0.18000
C466        C  0.19242716  0.79719432  0.73262676    -0.17800
C467        C  0.20255714  0.89484967  0.73226819    -0.18200
C468        C  0.10447130  0.80748220  0.76744567    -0.18100
C469        C  0.19225437  0.79727739  0.76737340    -0.17700
C470        C  0.20298345  0.89508203  0.76709596    -0.18000
C471        C  0.29525152  0.79475343  0.66972034     0.79500
N472        N  0.25530079  0.80684768  0.68414059    -0.78900
C473        C  0.22308962  0.77487243  0.71052740     0.81900
N474        N  0.22913851  0.72944382  0.72041921    -0.78800
C475        C  0.27473752  0.72304714  0.71054984     0.82000
N476        N  0.30716144  0.75485580  0.68406863    -0.80500
C477        C  0.28490763  0.78564997  0.83384856     0.79500
N478        N  0.29994209  0.74850837  0.81849449    -0.78900
C479        C  0.27227969  0.72108589  0.78986389     0.81900
N480        N  0.22919764  0.72980318  0.77850131    -0.78800
C481        C  0.22091107  0.77317489  0.78961350     0.82000
N482        N  0.24820774  0.80075253  0.81814706    -0.80500
C483        C  0.21272102  0.99853086  0.83332017     0.79500
N484        N  0.24986192  0.55090594  0.81829238    -0.78900
C485        C  0.27809241  0.55130973  0.78986511     0.81900
N486        N  0.27077075  0.49995667  0.77872921    -0.78800
C487        C  0.22692241  0.94783792  0.78944882     0.82000
N488        N  0.19812945  0.94697332  0.81762762    -0.80500
C489        C  0.21197876  0.49912173  0.66631484     0.79500
N490        N  0.24917202  0.55109699  0.68194608    -0.78900
C491        C  0.27717527  0.55111088  0.71020153     0.81900
N492        N  0.26950272  0.49958550  0.72089218    -0.78800
C493        C  0.22583744  0.94761809  0.70988803     0.82000
N494        N  0.19731567  0.94713718  0.68162209    -0.80500
C495        C  0.00010600  0.70389953  0.67000391     0.79500
N496        N  0.05208349  0.74399398  0.68442969    -0.78900
C497        C  0.05151487  0.77569973  0.71083928     0.82500
N498        N  0.99938715  0.76885304  0.72085106    -0.78800
C499        C  0.44752496  0.72341899  0.71077266     0.82000
N500        N  0.44764888  0.69155874  0.68425988    -0.80500
C501        C  0.99895608  0.70791439  0.83140994     0.79500
N502        N  0.05126179  0.74708779  0.81672927    -0.78900
C503        C  0.05117407  0.77731127  0.78957608     0.81900
N504        N  0.99912063  0.76982800  0.77909801    -0.78800
C505        C  0.44705819  0.72516093  0.78961573     0.82000
N506        N  0.44673376  0.69483046  0.81682922    -0.80500
O507        O  0.40384443  0.95729333  0.96161128    -0.82600
C508        C  0.09528414  0.50647896  0.54544674     0.96800
O509        O  0.06749378  0.96022763  0.52781973    -0.71700
O510        O  0.45571713  0.90938436  0.53929287    -0.75300
Al511      Al  0.99879617  0.93360820  0.99979968     1.49000
C512        C  0.40893046  0.90892742  0.54687562     0.92000
O513        O  0.45174786  0.54736936  0.53868046    -0.81500
O514        O  0.04907034  0.59493599  0.95980692    -0.75100
Al515      Al  0.43154521  0.00235255  0.50017119     1.90100
O516        O  0.04368833  0.61213761  0.52725646    -0.74100
O517        O  0.10854896  0.54247275  0.96970183    -0.74000
O518        O  0.09578105  0.55264777  0.53731042    -0.79600
O519        O  0.04197667  0.95022608  0.96036327    -0.77800
O520        O  0.99978539  0.50212195  0.99946789    -1.14000
O521        O  0.42973872  0.89188554  0.97187246    -0.73200
C522        C  0.40306995  0.91069459  0.95398299     0.97600
C523        C  0.99852529  0.59413236  0.54555692     0.94000
Al524      Al  0.06857009  0.56990064  0.99855490     1.55600
O525        O  0.39039797  0.93576394  0.52911923    -0.77800
C526        C  0.08855617  0.99614238  0.95217750     0.98100
C527        C  0.00288328  0.59640849  0.95342967     0.93000
O528        O  0.45756697  0.56941474  0.97158186    -0.83100
C529        C  0.99870979  0.67728405  0.86188755    -0.06900
C530        C  0.46131623  0.67344426  0.88803071    -0.18000
C531        C  0.46306907  0.64966261  0.91872298     0.10300
C532        C  0.00175019  0.62733344  0.92312356    -0.06800
C533        C  0.03856631  0.63075417  0.89667028    -0.18000
C534        C  0.03711801  0.65481131  0.86619955     0.10300
S535        S  0.41758706  0.65240482  0.95157055    -0.33000
S536        S  0.08321287  0.65260556  0.83344495    -0.33000
H537        H  0.04257476  0.64189978  0.80782034     0.28300
H538        H  0.46070166  0.66774448  0.97637552     0.28300
H539        H  0.43221691  0.69129122  0.88495699     0.18900
H540        H  0.06747196  0.61259147  0.89928042     0.18900
C541        C  0.00113027  0.67406849  0.63924930    -0.06900
C542        C  0.04374424  0.70733690  0.61507936    -0.18000
C543        C  0.04335120  0.68381696  0.58385135     0.10300
C544        C  0.00002963  0.62496397  0.57666501    -0.06800
C545        C  0.45833707  0.59152618  0.60132613    -0.18000
C546        C  0.45885414  0.61494565  0.63244131     0.10300
S547        S  0.09782204  0.73213885  0.55426981    -0.33000
S548        S  0.40638586  0.56577954  0.66269480    -0.33000
H549        H  0.44496841  0.58977503  0.68988743     0.28300
H550        H  0.05753327  0.71450948  0.52774558     0.28300
H551        H  0.07623764  0.75281423  0.62005480     0.18900
H552        H  0.42599458  0.54579631  0.59687230     0.18900
C553        C  0.12650755  0.50591377  0.57616818    -0.06900
C554        C  0.13831511  0.95961447  0.58097286    -0.18000
C555        C  0.16694221  0.95653897  0.60961556     0.10300
C556        C  0.18342552  0.50004605  0.63473557    -0.06800
C557        C  0.17256425  0.54645574  0.62965839    -0.18000
C558        C  0.14384390  0.54953568  0.60129625     0.10300
S559        S  0.18257835  0.89731051  0.61192819    -0.33000
S560        S  0.12758807  0.60843250  0.60042998    -0.33000
H561        H  0.06685219  0.56967887  0.59520149     0.28300
H562        H  0.23969267  0.93222468  0.62515791     0.28300
H563        H  0.12590967  0.92601338  0.56209048     0.18900
H564        H  0.18461022  0.57987968  0.64862968     0.18900
C565        C  0.11994120  0.99589072  0.92165582    -0.06900
C566        C  0.18196604  0.53138419  0.92032881    -0.18000
C567        C  0.21363658  0.53125723  0.89230004     0.10300
C568        C  0.18270245  0.99718477  0.86438862    -0.06800
C569        C  0.12121316  0.96140813  0.86575447    -0.18000
C570        C  0.08950587  0.96063035  0.89376277     0.10300
S571        S  0.29327599  0.57220344  0.89437672    -0.33000
S572        S  0.01021181  0.91619575  0.89106491    -0.33000
H573        H  0.00092561  0.95968361  0.90520774     0.28300
H574        H  0.30243462  0.53404608  0.87397381     0.28300
H575        H  0.20598948  0.55778751  0.94161616     0.18900
H576        H  0.09739381  0.93522162  0.84433822     0.18900
C577        C  0.31351914  0.81541374  0.86524608    -0.06900
C578        C  0.33116718  0.87497505  0.86851182    -0.18000
C579        C  0.36038765  0.90695764  0.89677180     0.10300
C580        C  0.37155682  0.87865638  0.92342023    -0.06800
C581        C  0.35332089  0.81866688  0.92023600    -0.18000
C582        C  0.32389318  0.78672138  0.89174142     0.10300
S583        S  0.38440791  0.98429901  0.89574673    -0.33000
S584        S  0.29808723  0.70907698  0.89154780    -0.33000
H585        H  0.24492529  0.69282222  0.87476115     0.28300
H586        H  0.44253820  0.00217124  0.90541717     0.28300
H587        H  0.32382178  0.89758533  0.84828113     0.18900
H588        H  0.36097331  0.79610060  0.94034377     0.18900
C589        C  0.32598152  0.82598107  0.63915781    -0.06900
C590        C  0.29268540  0.83394517  0.61458648    -0.18000
C591        C  0.31748146  0.85899219  0.58389807     0.10300
C592        C  0.37780002  0.87843200  0.57772679    -0.06800
C593        C  0.41120037  0.87111463  0.60263270    -0.18000
C594        C  0.38628779  0.84561263  0.63314929     0.10300
S595        S  0.26879792  0.86154815  0.55327979    -0.33000
S596        S  0.43474559  0.84216431  0.66369876    -0.33000
H597        H  0.40898691  0.85456519  0.69093862     0.28300
H598        H  0.29038529  0.84192214  0.52714003     0.28300
H599        H  0.24611931  0.81829535  0.61881523     0.18900
H600        H  0.45784991  0.88683833  0.59871794     0.18900
C601        C  0.83240029  0.16577642  0.21777882     0.44700
H602        H  0.83263124  0.16584478  0.19020207    -0.04300
C603        C  0.83213499  0.16590087  0.28242447     0.44700
H604        H  0.83211868  0.16600036  0.31000328    -0.04300
C605        C  0.80612023  0.10397359  0.23263051    -0.18000
C606        C  0.89446176  0.20147650  0.23273565    -0.17800
C607        C  0.79665189  0.19199647  0.23273335    -0.18200
C608        C  0.80623251  0.10407868  0.26747418    -0.18100
C609        C  0.89427177  0.20184006  0.26747616    -0.17700
C610        C  0.79633602  0.19183632  0.26755874    -0.18000
C611        C  0.66674842  0.33290975  0.21761296     0.44700
H612        H  0.66660556  0.33248212  0.19003173    -0.04300
C613        C  0.66686392  0.33346785  0.28222726     0.44700
H614        H  0.66685729  0.33366719  0.30979946    -0.04300
C615        C  0.60474915  0.30700487  0.23272803    -0.18000
C616        C  0.69280276  0.29732098  0.23263482    -0.17800
C617        C  0.70270070  0.39489290  0.23227294    -0.18200
C618        C  0.60471460  0.30738825  0.26744222    -0.18100
C619        C  0.69262807  0.29740175  0.26737826    -0.17700
C620        C  0.70312404  0.39511608  0.26710077    -0.18000
C621        C  0.79572552  0.29494189  0.16977520     0.79500
N622        N  0.75579039  0.30705584  0.18419754    -0.78900
C623        C  0.72350927  0.27503264  0.21055056     0.81900
N624        N  0.72949114  0.22955072  0.22041921    -0.78800
C625        C  0.77507674  0.22312695  0.21055121     0.82000
N626        N  0.80754969  0.25496673  0.18409363    -0.80500
C627        C  0.78548717  0.28591162  0.33378276     0.79500
N628        N  0.80046556  0.24873674  0.31842240    -0.78900
C629        C  0.77268827  0.22122845  0.28983566     0.81900
N630        N  0.72956876  0.22992205  0.27850668    -0.78800
C631        C  0.72134443  0.27334229  0.28960687     0.82000
N632        N  0.74873617  0.30098252  0.31810864    -0.80500
C633        C  0.71273592  0.49849500  0.33334579     0.79500
N634        N  0.74993686  0.05092403  0.31827608    -0.78900
C635        C  0.77819054  0.05127717  0.28986448     0.81900
N636        N  0.77081635  0.99989013  0.27874703    -0.78800
C637        C  0.72696872  0.44787009  0.28944847     0.82000
N638        N  0.69820046  0.44695124  0.31764987    -0.80500
C639        C  0.71226458  0.99910094  0.16620894     0.79500
N640        N  0.74943808  0.05107813  0.18185762    -0.78900
C641        C  0.77729356  0.05106008  0.21017496     0.81900
N642        N  0.76946629  0.99950864  0.22091304    -0.78800
C643        C  0.72583463  0.44767033  0.20990380     0.82000
N644        N  0.69714740  0.44716444  0.18170106    -0.80500
C645        C  0.50033602  0.20385575  0.16997581     0.79500
N646        N  0.55232466  0.24393347  0.18440309    -0.78900
C647        C  0.55176275  0.27562019  0.21082641     0.82500
N648        N  0.49963612  0.26877340  0.22084271    -0.78800
C649        C  0.94776801  0.22335254  0.21076024     0.82000
N650        N  0.94788508  0.19151450  0.18423807    -0.80500
C651        C  0.49918120  0.20787206  0.33142615     0.79500
N652        N  0.55149539  0.24701139  0.31673755    -0.78900
C653        C  0.55141331  0.27720800  0.28956958     0.81900
N654        N  0.49936399  0.26972168  0.27908410    -0.78800
C655        C  0.94729607  0.22507431  0.28960639     0.82000
N656        N  0.94696123  0.19477722  0.31683724    -0.80500
O657        O  0.90402501  0.45743091  0.46163481    -0.82600
C658        C  0.59510499  0.00609360  0.04543960     0.96800
O659        O  0.56776697  0.46063519  0.02780205    -0.71700
O660        O  0.95603756  0.40969100  0.03932214    -0.75300
Al661      Al  0.49904720  0.43390592  0.49982505     1.49000
C662        C  0.90920904  0.40914149  0.04690481     0.92000
O663        O  0.95168241  0.04723920  0.03866504    -0.81500
O664        O  0.54904717  0.09473071  0.45982794    -0.75100
Al665      Al  0.93165433  0.50249345  0.00018837     1.90100
O666        O  0.54367178  0.11188873  0.02726453    -0.74100
O667        O  0.60839739  0.04215201  0.46971420    -0.74000
O668        O  0.59564357  0.05228219  0.03730167    -0.79600
O669        O  0.54216338  0.45052068  0.46039333    -0.77800
O670        O  0.49963206  0.00187375  0.49945790    -1.14000
O671        O  0.92997678  0.39208269  0.47193005    -0.73200
C672        C  0.90331506  0.41086225  0.45401424     0.97600
C673        C  0.49850294  0.09395810  0.04554705     0.94000
Al674      Al  0.56847196  0.06960723  0.49856332     1.55600
O675        O  0.89059912  0.43589979  0.02913998    -0.77800
C676        C  0.58872196  0.49642864  0.45218912     0.98100
C677        C  0.50290544  0.09628036  0.45344241     0.93000
O678        O  0.95755320  0.06929555  0.47156866    -0.83100
C679        C  0.49891752  0.17727447  0.36191762    -0.06900
C680        C  0.96163693  0.17360937  0.38808292    -0.18000
C681        C  0.96334857  0.14980352  0.41877426     0.10300
C682        C  0.50186308  0.12727183  0.42314823    -0.06800
C683        C  0.53858699  0.13054762  0.39667889    -0.18000
C684        C  0.53718187  0.15462981  0.36620949     0.10300
S685        S  0.91803619  0.15276593  0.45165098    -0.33000
S686        S  0.58312286  0.15222355  0.33342760    -0.33000
H687        H  0.54247265  0.14161893  0.30782659     0.28300
H688        H  0.96111688  0.16784905  0.47644815     0.28300
H689        H  0.93265440  0.19159563  0.38502235     0.18900
H690        H  0.56736790  0.11223798  0.39927400     0.18900
C691        C  0.50131947  0.17400252  0.13922463    -0.06900
C692        C  0.54387433  0.20724922  0.11502521    -0.18000
C693        C  0.54341089  0.18368978  0.08379883     0.10300
C694        C  0.50006709  0.12482831  0.07664542    -0.06800
C695        C  0.95843028  0.09141834  0.10133254    -0.18000
C696        C  0.95902882  0.11487059  0.13244774     0.10300
S697        S  0.59782975  0.23196764  0.05417973    -0.33000
S698        S  0.90664833  0.06573025  0.16274325    -0.33000
H699        H  0.94530149  0.08977010  0.18990382     0.28300
H700        H  0.55751399  0.21425691  0.02766560     0.28300
H701        H  0.57637291  0.25273071  0.11997853     0.18900
H702        H  0.92608143  0.04568394  0.09690034     0.18900
C703        C  0.62644141  0.00558537  0.07613070    -0.06900
C704        C  0.63809377  0.45976813  0.08107000    -0.18000
C705        C  0.66653795  0.45655054  0.10974969     0.10300
C706        C  0.68373009  0.00000270  0.13461526    -0.06800
C707        C  0.67261896  0.04625259  0.12958560    -0.18000
C708        C  0.64369435  0.04917408  0.10127381     0.10300
S709        S  0.68184493  0.39710684  0.11211225    -0.33000
S710        S  0.62702060  0.10778888  0.10050998    -0.33000
H711        H  0.56635039  0.06882931  0.09520060     0.28300
H712        H  0.73907559  0.43192725  0.12521474     0.28300
H713        H  0.62560995  0.42612937  0.06220331     0.18900
H714        H  0.68457652  0.07963476  0.14857383     0.18900
C715        C  0.62008390  0.49607953  0.42167975    -0.06900
C716        C  0.68184524  0.03105472  0.42037248    -0.18000
C717        C  0.71354846  0.03104881  0.39232933     0.10300
C718        C  0.68277261  0.49713217  0.36443719    -0.06800
C719        C  0.62131488  0.46118123  0.36588159    -0.18000
C720        C  0.58964115  0.46051728  0.39387725     0.10300
S721        S  0.79318710  0.07179778  0.39448839    -0.33000
S722        S  0.51035968  0.41582311  0.39126540    -0.33000
H723        H  0.50091949  0.45943077  0.40510302     0.28300
H724        H  0.80228331  0.03371247  0.37398542     0.28300
H725        H  0.70585395  0.05724945  0.44172279     0.18900
H726        H  0.59748178  0.43478908  0.34452707     0.18900
C727        C  0.81411702  0.31566171  0.36518522    -0.06900
C728        C  0.83133765  0.37510345  0.36856602    -0.18000
C729        C  0.86047077  0.40706266  0.39684662     0.10300
C730        C  0.87190771  0.37883877  0.42342594    -0.06800
C731        C  0.85414894  0.31898325  0.42011984    -0.18000
C732        C  0.82489874  0.28707726  0.39158261     0.10300
S733        S  0.88415701  0.48432501  0.39591390    -0.33000
S734        S  0.79991660  0.20960880  0.39120650    -0.33000
H735        H  0.74643835  0.19290005  0.37465961     0.28300
H736        H  0.94245695  0.50231638  0.40530638     0.28300
H737        H  0.82375079  0.39766376  0.34840309     0.18900
H738        H  0.86208670  0.29648940  0.44015339     0.18900
C739        C  0.82644068  0.32615643  0.13920883    -0.06900
C740        C  0.79319772  0.33446555  0.11475265    -0.18000
C741        C  0.81791318  0.35950825  0.08405609     0.10300
C742        C  0.87812199  0.37861457  0.07775810    -0.06800
C743        C  0.91147573  0.37093599  0.10254669    -0.18000
C744        C  0.88663197  0.34541685  0.13306899     0.10300
S745        S  0.76923641  0.36249762  0.05359867    -0.33000
S746        S  0.93505366  0.34146872  0.16344848    -0.33000
H747        H  0.90973157  0.35414928  0.19079234     0.28300
H748        H  0.79030250  0.34249198  0.02738395     0.28300
H749        H  0.74671121  0.31908872  0.11907343     0.18900
H750        H  0.95804631  0.38638098  0.09853961     0.18900
C751        C  0.83239938  0.16577721  0.71777982     0.44700
H752        H  0.83263037  0.16584573  0.69020304    -0.04300
C753        C  0.83213395  0.16590144  0.78242540     0.44700
H754        H  0.83211757  0.16600087  0.81000421    -0.04300
C755        C  0.80612138  0.10397459  0.73263134    -0.18000
C756        C  0.89446058  0.20147889  0.73273658    -0.17800
C757        C  0.79664925  0.19199529  0.73273434    -0.18200
C758        C  0.80623361  0.10407941  0.76747503    -0.18100
C759        C  0.89427063  0.20184258  0.76747711    -0.17700
C760        C  0.79633314  0.19183500  0.76755972    -0.18000
C761        C  0.66674712  0.33290966  0.71761327     0.44700
H762        H  0.66660419  0.33248200  0.69003198    -0.04300
C763        C  0.66686269  0.33346805  0.78222750     0.44700
H764        H  0.66685612  0.33366749  0.80979976    -0.04300
C765        C  0.60474791  0.30700616  0.73272833    -0.18000
C766        C  0.69279997  0.29731959  0.73263503    -0.17800
C767        C  0.70270101  0.39489276  0.73227329    -0.18200
C768        C  0.60471346  0.30738983  0.76744255    -0.18100
C769        C  0.69262524  0.29740048  0.76737847    -0.17700
C770        C  0.70312415  0.39511617  0.76710106    -0.18000
C771        C  0.79572129  0.29493830  0.66977519     0.79500
N772        N  0.75578607  0.30705246  0.68419722    -0.78900
C773        C  0.72350574  0.27503038  0.71055078     0.81900
N774        N  0.72948836  0.22954926  0.72042012    -0.78800
C775        C  0.77507368  0.22312514  0.71055208     0.82000
N776        N  0.80754612  0.25496405  0.68409417    -0.80500
C777        C  0.78548554  0.28591263  0.83378251     0.79500
N778        N  0.80046303  0.24873652  0.81842289    -0.78900
C779        C  0.77268486  0.22122682  0.78983659     0.81900
N780        N  0.72956485  0.22991985  0.77850762    -0.78800
C781        C  0.72134142  0.27334111  0.78960716     0.82000
N782        N  0.74873447  0.30098306  0.81810826    -0.80500
C783        C  0.71273493  0.49849606  0.83334511     0.79500
N784        N  0.74993928  0.05092449  0.81827704    -0.78900
C785        C  0.77819269  0.05127775  0.78986534     0.81900
N786        N  0.77081803  0.99989061  0.77874762    -0.78800
C787        C  0.72696886  0.44787058  0.78944855     0.82000
N788        N  0.69820003  0.44695207  0.81764962    -0.80500
C789        C  0.71227026  0.99910357  0.66620800     0.79500
N790        N  0.74944327  0.05108036  0.68185722    -0.78900
C791        C  0.77729613  0.05106151  0.71017545     0.81900
N792        N  0.76946723  0.99950974  0.72091381    -0.78800
C793        C  0.72583544  0.44767002  0.70990416     0.82000
N794        N  0.69714751  0.44716360  0.68170173    -0.80500
C795        C  0.50033357  0.20385672  0.66997648     0.79500
N796        N  0.55232253  0.24393440  0.68440356    -0.78900
C797        C  0.55176127  0.27562174  0.71082678     0.82500
N798        N  0.49963494  0.26877554  0.72084320    -0.78800
C799        C  0.94776652  0.22335475  0.71076096     0.82000
N800        N  0.94788298  0.19151625  0.68423883    -0.80500
C801        C  0.49918019  0.20787646  0.83142749     0.79500
N802        N  0.55149432  0.24701484  0.81673846    -0.78900
C803        C  0.55141227  0.27721069  0.78957013     0.81900
N804        N  0.49936299  0.26972445  0.77908459    -0.78800
C805        C  0.94729501  0.22507789  0.78960738     0.82000
N806        N  0.94696024  0.19478161  0.81683860    -0.80500
O807        O  0.90402383  0.45743490  0.96163304    -0.82600
C808        C  0.59510892  0.00609603  0.54543929     0.96800
O809        O  0.56776842  0.46063307  0.52780322    -0.71700
O810        O  0.95603882  0.40968777  0.53932371    -0.75300
Al811      Al  0.49904552  0.43390874  0.99982366     1.49000
C812        C  0.90921031  0.40913853  0.54690626     0.92000
O813        O  0.95168298  0.04723817  0.53866609    -0.81500
O814        O  0.54904594  0.09472939  0.95982703    -0.75100
Al815      Al  0.93165588  0.50249053  0.50018954     1.90100
O816        O  0.54367234  0.11188860  0.52726592    -0.74100
O817        O  0.60839653  0.04215090  0.96971442    -0.74000
O818        O  0.59564610  0.05228389  0.53730159    -0.79600
O819        O  0.54216154  0.45052335  0.96039197    -0.77800
O820        O  0.49963007  0.00187241  0.99945736    -1.14000
O821        O  0.92997493  0.39208608  0.97192871    -0.73200
C822        C  0.90331384  0.41086608  0.95401265     0.97600
C823        C  0.49850316  0.09395714  0.54554841     0.94000
Al824      Al  0.56847046  0.06960598  0.99856281     1.55600
O825        O  0.89060107  0.43589775  0.52914172    -0.77800
C826        C  0.58871971  0.49643139  0.95218743     0.98100
C827        C  0.50290395  0.09627880  0.95344149     0.93000
O828        O  0.95755130  0.06929323  0.97156734    -0.83100
C829        C  0.49891656  0.17727796  0.86191854    -0.06900
C830        C  0.96163825  0.17361428  0.88808464    -0.18000
C831        C  0.96334957  0.14980629  0.91877531     0.10300
C832        C  0.50186165  0.12727137  0.92314781    -0.06800
C833        C  0.53858329  0.13054577  0.89667761    -0.18000
C834        C  0.53717824  0.15462973  0.86620881     0.10300
S835        S  0.91803984  0.15277000  0.95165321    -0.33000
S836        S  0.58311540  0.15222094  0.83342544    -0.33000
H837        H  0.54246424  0.14161919  0.80782545     0.28300
H838        H  0.96112052  0.16784896  0.97644992     0.28300
H839        H  0.93265765  0.19160297  0.88502522     0.18900
H840        H  0.56736250  0.11223347  0.89927164     0.18900
C841        C  0.50131649  0.17400273  0.63922537    -0.06900
C842        C  0.54387187  0.20724889  0.61502607    -0.18000
C843        C  0.54340932  0.18368887  0.58380003     0.10300
C844        C  0.50006632  0.12482712  0.57664679    -0.06800
C845        C  0.95842865  0.09141763  0.60133368    -0.18000
C846        C  0.95902568  0.11487076  0.63244849     0.10300
S847        S  0.59782774  0.23196677  0.55418080    -0.33000
S848        S  0.90664282  0.06573156  0.66274346    -0.33000
H849        H  0.94529463  0.08977070  0.68990464     0.28300
H850        H  0.55751145  0.21425578  0.52766690     0.28300
H851        H  0.57637019  0.25273052  0.61997917     0.18900
H852        H  0.92607973  0.04568307  0.59690147     0.18900
C853        C  0.62644799  0.00558927  0.57612957    -0.06900
C854        C  0.63809681  0.45976786  0.58107043    -0.18000
C855        C  0.66654098  0.45655059  0.60975008     0.10300
C856        C  0.68373749  0.00000625  0.63461374    -0.06800
C857        C  0.67263636  0.04626221  0.62958143    -0.18000
C858        C  0.64371158  0.04918419  0.60126987     0.10300
S859        S  0.68185388  0.39711063  0.61211145    -0.33000
S860        S  0.62705216  0.10780881  0.60050304    -0.33000
H861        H  0.56637818  0.06885625  0.59520102     0.28300
H862        H  0.73908253  0.43193270  0.62521612     0.28300
H863        H  0.62561679  0.42613132  0.56220276     0.18900
H864        H  0.68460146  0.07964897  0.64856750     0.18900
C865        C  0.62008169  0.49608195  0.92167813    -0.06900
C866        C  0.68184534  0.03105560  0.92037285    -0.18000
C867        C  0.71354936  0.03105034  0.89232991     0.10300
C868        C  0.68277122  0.49713368  0.86443620    -0.06800
C869        C  0.62131394  0.46117997  0.86588115    -0.18000
C870        C  0.58963973  0.46051611  0.89387651     0.10300
S871        S  0.79318802  0.07180253  0.89448913    -0.33000
S872        S  0.51035868  0.41581681  0.89126536    -0.33000
H873        H  0.50091537  0.45942330  0.90510136     0.28300
H874        H  0.80228668  0.03371887  0.87398616     0.28300
H875        H  0.70585334  0.05725044  0.94172316     0.18900
H876        H  0.59748120  0.43478495  0.84452710     0.18900
C877        C  0.81411618  0.31566421  0.86518426    -0.06900
C878        C  0.83134565  0.37510857  0.86856209    -0.18000
C879        C  0.86047858  0.40706834  0.89684261     0.10300
C880        C  0.87190705  0.37884255  0.92342435    -0.06800
C881        C  0.85413950  0.31898447  0.92012106    -0.18000
C882        C  0.82488863  0.28707780  0.89158417     0.10300
S883        S  0.88417383  0.48433279  0.89590719    -0.33000
S884        S  0.79989267  0.20960622  0.89121164    -0.33000
H885        H  0.74641967  0.19290493  0.87466069     0.28300
H886        H  0.94246898  0.50231975  0.90530764     0.28300
H887        H  0.82376505  0.39766983  0.84839709     0.18900
H888        H  0.86207016  0.29648932  0.94015663     0.18900
C889        C  0.82643720  0.32615256  0.63920903    -0.06900
C890        C  0.79319332  0.33445422  0.61475029    -0.18000
C891        C  0.81791071  0.35949702  0.58405406     0.10300
C892        C  0.87812212  0.37861093  0.57775909    -0.06800
C893        C  0.91147651  0.37093935  0.60255011    -0.18000
C894        C  0.88663093  0.34542025  0.63307216     0.10300
S895        S  0.76923371  0.36247701  0.55359318    -0.33000
S896        S  0.93505271  0.34148147  0.66345529    -0.33000
H897        H  0.90972151  0.35415604  0.69079706     0.28300
H898        H  0.79031163  0.34248027  0.52737996     0.28300
H899        H  0.74670489  0.31907164  0.61906899     0.18900
H900        H  0.95804907  0.38639022  0.59854509     0.18900
C901        C  0.83217146  0.66580970  0.21779614     0.44700
H902        H  0.83240094  0.66587105  0.19021922    -0.04300
C903        C  0.83190208  0.66593311  0.28244106     0.44700
H904        H  0.83188660  0.66602844  0.31001977    -0.04300
C905        C  0.80596724  0.60401879  0.23265169    -0.18000
C906        C  0.89422309  0.70155672  0.23274942    -0.17800
C907        C  0.79636801  0.69197246  0.23274728    -0.18200
C908        C  0.80607184  0.60412129  0.26748999    -0.18100
C909        C  0.89403350  0.70192702  0.26749030    -0.17700
C910        C  0.79603697  0.69179845  0.26757674    -0.18000
C911        C  0.66648355  0.83287955  0.21761327     0.44700
H912        H  0.66632856  0.83244713  0.19003203    -0.04300
C913        C  0.66661207  0.83344942  0.28222431     0.44700
H914        H  0.66660942  0.83365474  0.30979660    -0.04300
C915        C  0.60450153  0.80708959  0.23273453    -0.18000
C916        C  0.69242874  0.79719378  0.23262748    -0.17800
C917        C  0.70255709  0.89484842  0.23226846    -0.18200
C918        C  0.60447252  0.80748045  0.26744666    -0.18100
C919        C  0.69225655  0.79727735  0.26737421    -0.17700
C920        C  0.70298374  0.89508123  0.26709621    -0.18000
C921        C  0.79524760  0.79474777  0.16971889     0.79500
N922        N  0.75529793  0.80684316  0.18413956    -0.78900
C923        C  0.72308957  0.77487052  0.21052782     0.81900
N924        N  0.72913990  0.72944333  0.22042050    -0.78800
C925        C  0.77473794  0.72304581  0.21055047     0.82000
N926        N  0.80715936  0.75485195  0.18406797    -0.80500
C927        C  0.78491003  0.78564978  0.33384946     0.79500
N928        N  0.79994406  0.74850793  0.31849540    -0.78900
C929        C  0.77228125  0.72108534  0.28986490     0.81900
N930        N  0.72919913  0.72980264  0.27850250    -0.78800
C931        C  0.72091317  0.77317481  0.28961449     0.82000
N932        N  0.74821029  0.80075267  0.31814798    -0.80500
C933        C  0.71271886  0.99853039  0.33331928     0.79500
N934        N  0.74986289  0.55090493  0.31829323    -0.78900
C935        C  0.77809265  0.55130893  0.28986557     0.81900
N936        N  0.77077052  0.49995602  0.27872920    -0.78800
C937        C  0.72692146  0.94783739  0.28944852     0.82000
N938        N  0.69812810  0.94697278  0.31762713    -0.80500
C939        C  0.71197898  0.49912289  0.16631426     0.79500
N940        N  0.74917225  0.55109784  0.18194595    -0.78900
C941        C  0.77717470  0.55111100  0.21020167     0.81900
N942        N  0.76950156  0.49958543  0.22089214    -0.78800
C943        C  0.72583580  0.94761648  0.20988804     0.82000
N944        N  0.69731184  0.94713476  0.18162284    -0.80500
C945        C  0.50010670  0.70389459  0.17000622     0.79500
N946        N  0.55208417  0.74398922  0.18443189    -0.78900
C947        C  0.55151573  0.77569646  0.21084072     0.82500
N948        N  0.49938829  0.76885092  0.22085205    -0.78800
C949        C  0.94752591  0.72341633  0.21077384     0.82000
N950        N  0.94764961  0.69155471  0.18426172    -0.80500
C951        C  0.49895721  0.70791028  0.33141011     0.79500
N952        N  0.55126295  0.74708438  0.31672974    -0.78900
C953        C  0.55117533  0.77730897  0.28957704     0.81900
N954        N  0.49912192  0.76982620  0.27909918    -0.78800
C955        C  0.94705931  0.72515846  0.28961656     0.82000
N956        N  0.94673488  0.69482684  0.31682952    -0.80500
O957        O  0.90384848  0.95729598  0.46161076    -0.82600
C958        C  0.59528374  0.50648127  0.04544536     0.96800
O959        O  0.56749087  0.96022559  0.02781950    -0.71700
O960        O  0.95571350  0.90938082  0.03929156    -0.75300
Al961      Al  0.49879836  0.93360969  0.49980052     1.49000
C962        C  0.90892772  0.90892505  0.04687508     0.92000
O963        O  0.95174648  0.54737095  0.03867971    -0.81500
O964        O  0.54907189  0.59493226  0.45980746    -0.75100
Al965      Al  0.93154322  0.00235166  0.00017100     1.90100
O966        O  0.54368693  0.61213883  0.02725617    -0.74100
O967        O  0.60855110  0.54246968  0.46970375    -0.74000
O968        O  0.59578041  0.55264990  0.03730898    -0.79600
O969        O  0.54197775  0.95022651  0.46036388    -0.77800
O970        O  0.49978671  0.50211910  0.49946921    -1.14000
O971        O  0.92973978  0.89188653  0.47187397    -0.73200
C972        C  0.90307315  0.91069647  0.45398329     0.97600
C973        C  0.49852423  0.59413300  0.04555693     0.94000
Al974      Al  0.56857141  0.56989800  0.49855601     1.55600
O975        O  0.89039661  0.93576448  0.02912014    -0.77800
C976        C  0.58855689  0.99614278  0.45217762     0.98100
C977        C  0.50288455  0.59640409  0.45342993     0.93000
O978        O  0.95756862  0.56941067  0.47158215    -0.83100
C979        C  0.49871078  0.67727918  0.36188751    -0.06900
C980        C  0.96131563  0.67343703  0.38803021    -0.18000
C981        C  0.96306861  0.64965558  0.41872250     0.10300
C982        C  0.50175107  0.62732841  0.42312359    -0.06800
C983        C  0.53856883  0.63075112  0.39667072    -0.18000
C984        C  0.53712077  0.65480859  0.36619999     0.10300
S985        S  0.91758488  0.65239585  0.45156969    -0.33000
S986        S  0.58321860  0.65260629  0.33344606    -0.33000
H987        H  0.54258112  0.64189933  0.30782089     0.28300
H988        H  0.96070001  0.66773872  0.47637469     0.28300
H989        H  0.93221508  0.69128247  0.38495625     0.18900
H990        H  0.56747577  0.61259025  0.39928121     0.18900
C991        C  0.50113103  0.67406366  0.13925156    -0.06900
C992        C  0.54374953  0.70733085  0.11508339    -0.18000
C993        C  0.54335649  0.68381284  0.08385487     0.10300
C994        C  0.50002968  0.62496284  0.07666594    -0.06800
C995        C  0.95833320  0.59152545  0.10132541    -0.18000
C996        C  0.95885047  0.61494269  0.13244128     0.10300
S997        S  0.59783532  0.73213343  0.05427634    -0.33000
S998        S  0.90637636  0.56577658  0.16269251    -0.33000
H999        H  0.94495691  0.58976571  0.18988642     0.28300
H1000       H  0.55754940  0.71451656  0.02775123     0.28300
H1001       H  0.57624696  0.75280644  0.12006056     0.18900
H1002       H  0.92598647  0.54579680  0.09686971     0.18900
C1003       C  0.62650880  0.50591669  0.07616656    -0.06900
C1004       C  0.63831729  0.95961579  0.08097178    -0.18000
C1005       C  0.66694411  0.95654058  0.10961475     0.10300
C1006       C  0.68342668  0.50004815  0.13473440    -0.06800
C1007       C  0.67257084  0.54646110  0.12965564    -0.18000
C1008       C  0.64385111  0.54954185  0.10129330     0.10300
S1009       S  0.68259295  0.89732041  0.11192477    -0.33000
S1010       S  0.62760455  0.60844485  0.10042497    -0.33000
H1011       H  0.56686649  0.56969553  0.09520080     0.28300
H1012       H  0.73970348  0.93223878  0.12515837     0.28300
H1013       H  0.62591966  0.92601934  0.06208730     0.18900
H1014       H  0.68462084  0.57988765  0.14862598     0.18900
C1015       C  0.61994114  0.99589021  0.42165580    -0.06900
C1016       C  0.68196844  0.53137877  0.42033104    -0.18000
C1017       C  0.71363852  0.53125245  0.39230184     0.10300
C1018       C  0.68270084  0.99718414  0.36438794    -0.06800
C1019       C  0.62121168  0.96140735  0.36575428    -0.18000
C1020       C  0.58950520  0.96062904  0.39376305     0.10300
S1021       S  0.79327790  0.57219642  0.39437871    -0.33000
S1022       S  0.51021135  0.91619198  0.39106629    -0.33000
H1023       H  0.50092444  0.95967966  0.40520854     0.28300
H1024       H  0.80243556  0.53404161  0.37397299     0.28300
H1025       H  0.70599223  0.55777966  0.44161893     0.18900
H1026       H  0.59739179  0.93522062  0.34433811     0.18900
C1027       C  0.81352272  0.81541422  0.36524663    -0.06900
C1028       C  0.83117247  0.87497603  0.36851154    -0.18000
C1029       C  0.86039355  0.90695933  0.39677120     0.10300
C1030       C  0.87156110  0.87865811  0.42342034    -0.06800
C1031       C  0.85332439  0.81866832  0.42023671    -0.18000
C1032       C  0.82389662  0.78672222  0.39174228     0.10300
S1033       S  0.88441628  0.98430127  0.39574481    -0.33000
S1034       S  0.79809085  0.70907773  0.39154926    -0.33000
H1035       H  0.74492895  0.69282253  0.37476246     0.28300
H1036       H  0.94254530  0.00217286  0.40541748     0.28300
H1037       H  0.82382782  0.89758615  0.34828040     0.18900
H1038       H  0.86097622  0.79610230  0.44034481     0.18900
C1039       C  0.82597673  0.82597428  0.13915593    -0.06900
C1040       C  0.79267913  0.83393270  0.11458309    -0.18000
C1041       C  0.81747614  0.85898086  0.08389495     0.10300
C1042       C  0.87779666  0.87842760  0.07772565    -0.06800
C1043       C  0.91119805  0.87111478  0.10263274    -0.18000
C1044       C  0.88628465  0.84561167  0.13314902     0.10300
S1045       S  0.76879191  0.86152932  0.05327431    -0.33000
S1046       S  0.93474347  0.84216997  0.16370036    -0.33000
H1047       H  0.90898002  0.85456805  0.19093897     0.28300
H1048       H  0.79039029  0.84191346  0.02713512     0.28300
H1049       H  0.74611186  0.81827814  0.11881061     0.18900
H1050       H  0.95784851  0.88684322  0.09871922     0.18900
C1051       C  0.83217026  0.66580989  0.71779539     0.44700
H1052       H  0.83239947  0.66587095  0.69021854    -0.04300
C1053       C  0.83190107  0.66593387  0.78244029     0.44700
H1054       H  0.83188566  0.66602946  0.81001899    -0.04300
C1055       C  0.80596712  0.60401908  0.73265122    -0.18000
C1056       C  0.89422199  0.70155793  0.73274848    -0.17800
C1057       C  0.79636628  0.69197231  0.73274650    -0.18200
C1058       C  0.80607161  0.60412191  0.76748945    -0.18100
C1059       C  0.89403240  0.70192841  0.76748939    -0.17700
C1060       C  0.79603533  0.69179852  0.76757593    -0.18000
C1061       C  0.66648294  0.83288102  0.71761258     0.44700
H1062       H  0.66632850  0.83244906  0.69003139    -0.04300
C1063       C  0.66661060  0.83344996  0.78222361     0.44700
H1064       H  0.66660761  0.83365480  0.80979580    -0.04300
C1065       C  0.60450065  0.80709177  0.73273350    -0.18000
C1066       C  0.69242711  0.79719423  0.73262677    -0.17800
C1067       C  0.70255718  0.89484962  0.73226819    -0.18200
C1068       C  0.60447132  0.80748221  0.76744567    -0.18100
C1069       C  0.69225436  0.79727732  0.76737341    -0.17700
C1070       C  0.70298352  0.89508198  0.76709596    -0.18000
C1071       C  0.79525111  0.79475302  0.66972021     0.79500
N1072       N  0.75530043  0.80684732  0.68414049    -0.78900
C1073       C  0.72308946  0.77487225  0.71052740     0.81900
N1074       N  0.72913851  0.72944378  0.72041930    -0.78800
C1075       C  0.77473743  0.72304703  0.71054986     0.82000
N1076       N  0.80716113  0.75485549  0.68406855    -0.80500
C1077       C  0.78490775  0.78565001  0.83384856     0.79500
N1078       N  0.79994216  0.74850837  0.81849451    -0.78900
C1079       C  0.77227968  0.72108580  0.78986394     0.81900
N1080       N  0.72919757  0.72980304  0.77850139    -0.78800
C1081       C  0.72091107  0.77317482  0.78961354     0.82000
N1082       N  0.74820783  0.80075255  0.81814706    -0.80500
C1083       C  0.71272109  0.99853085  0.83332012     0.79500
N1084       N  0.74986190  0.55090576  0.81829242    -0.78900
C1085       C  0.77809235  0.55130960  0.78986513     0.81900
N1086       N  0.77077068  0.49995653  0.77872919    -0.78800
C1087       C  0.72692251  0.94783787  0.78944881     0.82000
N1088       N  0.69812954  0.94697329  0.81762760    -0.80500
C1089       C  0.71197856  0.49912167  0.66631489     0.79500
N1090       N  0.74917188  0.55109693  0.68194611    -0.78900
C1091       C  0.77717519  0.55111082  0.71020154     0.81900
N1092       N  0.76950266  0.49958542  0.72089216    -0.78800
C1093       C  0.72583745  0.94761803  0.70988803     0.82000
N1094       N  0.69731564  0.94713710  0.68162212    -0.80500
C1095       C  0.50010601  0.70389977  0.67000385     0.79500
N1096       N  0.55208350  0.74399418  0.68442964    -0.78900
C1097       C  0.55151489  0.77569985  0.71083927     0.82500
N1098       N  0.49938718  0.76885313  0.72085108    -0.78800
C1099       C  0.94752494  0.72341885  0.71077266     0.82000
N1100       N  0.94764887  0.69155853  0.68425992    -0.80500
C1101       C  0.49895614  0.70791455  0.83140999     0.79500
N1102       N  0.55126183  0.74708789  0.81672929    -0.78900
C1103       C  0.55117411  0.77731136  0.78957609     0.81900
N1104       N  0.49912067  0.76982813  0.77909803    -0.78800
C1105       C  0.94705814  0.72516078  0.78961570     0.82000
N1106       N  0.94673371  0.69483028  0.81682916    -0.80500
O1107       O  0.90384429  0.95729328  0.96161132    -0.82600
C1108       C  0.59528399  0.50647890  0.54544679     0.96800
O1109       O  0.56749381  0.96022753  0.52781972    -0.71700
O1110       O  0.95571710  0.90938434  0.53929290    -0.75300
Al1111     Al  0.49879630  0.93360818  0.99979960     1.49000
C1112       C  0.90893041  0.90892738  0.54687565     0.92000
O1113       O  0.95174798  0.54736937  0.53868042    -0.81500
O1114       O  0.54907018  0.59493598  0.95980698    -0.75100
Al1115     Al  0.93154513  0.00235254  0.50017125     1.90100
O1116       O  0.54368823  0.61213754  0.52725645    -0.74100
O1117       O  0.60854877  0.54247268  0.96970185    -0.74000
O1118       O  0.59578097  0.55264772  0.53731042    -0.79600
O1119       O  0.54197666  0.95022605  0.96036315    -0.77800
O1120       O  0.49978517  0.50212192  0.99946795    -1.14000
O1121       O  0.92973869  0.89188557  0.97187249    -0.73200
C1122       C  0.90306990  0.91069458  0.95398303     0.97600
C1123       C  0.49852520  0.59413232  0.54555694     0.94000
Al1124     Al  0.56856991  0.56990059  0.99855495     1.55600
O1125       O  0.89039793  0.93576392  0.52911927    -0.77800
C1126       C  0.58855619  0.99614234  0.95217740     0.98100
C1127       C  0.50288312  0.59640846  0.95342973     0.93000
O1128       O  0.95756714  0.56941476  0.97158180    -0.83100
C1129       C  0.49870986  0.67728422  0.86188761    -0.06900
C1130       C  0.96131632  0.67344427  0.88803069    -0.18000
C1131       C  0.96306927  0.64966274  0.91872297     0.10300
C1132       C  0.50175004  0.62733340  0.92312361    -0.06800
C1133       C  0.53856631  0.63075428  0.89667038    -0.18000
C1134       C  0.53711814  0.65481156  0.86619965     0.10300
S1135       S  0.91758756  0.65240528  0.95157062    -0.33000
S1136       S  0.58321321  0.65260603  0.83344511    -0.33000
H1137       H  0.54257502  0.64189996  0.80782049     0.28300
H1138       H  0.96070225  0.66774481  0.97637553     0.28300
H1139       H  0.93221707  0.69129132  0.88495699     0.18900
H1140       H  0.56747195  0.61259164  0.89928053     0.18900
C1141       C  0.50113027  0.67406867  0.63924927    -0.06900
C1142       C  0.54374431  0.70733701  0.61507934    -0.18000
C1143       C  0.54335123  0.68381698  0.58385134     0.10300
C1144       C  0.50002964  0.62496404  0.57666503    -0.06800
C1145       C  0.95833711  0.59152611  0.60132611    -0.18000
C1146       C  0.95885412  0.61494546  0.63244130     0.10300
S1147       S  0.59782206  0.73213882  0.55426978    -0.33000
S1148       S  0.90638584  0.56577929  0.66269474    -0.33000
H1149       H  0.94496834  0.58977471  0.68988740     0.28300
H1150       H  0.55753325  0.71450945  0.52774558     0.28300
H1151       H  0.57623770  0.75281424  0.62005476     0.18900
H1152       H  0.92599437  0.54579586  0.59687220     0.18900
C1153       C  0.62650739  0.50591373  0.57616824    -0.06900
C1154       C  0.63831508  0.95961428  0.58097287    -0.18000
C1155       C  0.66694215  0.95653878  0.60961562     0.10300
C1156       C  0.68342529  0.50004600  0.63473565    -0.06800
C1157       C  0.67256408  0.54645570  0.62965846    -0.18000
C1158       C  0.64384379  0.54953569  0.60129631     0.10300
S1159       S  0.68257809  0.89731020  0.61192833    -0.33000
S1160       S  0.62758808  0.60843259  0.60042997    -0.33000
H1161       H  0.56685219  0.56967901  0.59520147     0.28300
H1162       H  0.73969250  0.93222436  0.62515795     0.28300
H1163       H  0.62590969  0.92601341  0.56209066     0.18900
H1164       H  0.68461014  0.57987979  0.64862980     0.18900
C1165       C  0.61994122  0.99589069  0.92165573    -0.06900
C1166       C  0.68196589  0.53138423  0.92032880    -0.18000
C1167       C  0.71363647  0.53125727  0.89230004     0.10300
C1168       C  0.68270253  0.99718477  0.86438856    -0.06800
C1169       C  0.62121324  0.96140816  0.86575439    -0.18000
C1170       C  0.58950593  0.96063038  0.89376266     0.10300
S1171       S  0.79327588  0.57220386  0.89437668    -0.33000
S1172       S  0.51021187  0.91619586  0.89106475    -0.33000
H1173       H  0.50092565  0.95968376  0.90520752     0.28300
H1174       H  0.80243476  0.53404658  0.87397384     0.28300
H1175       H  0.70598925  0.55778779  0.94161604     0.18900
H1176       H  0.59739390  0.93522165  0.84433811     0.18900
C1177       C  0.81351927  0.81541380  0.86524607    -0.06900
C1178       C  0.83116733  0.87497511  0.86851181    -0.18000
C1179       C  0.86038778  0.90695768  0.89677180     0.10300
C1180       C  0.87155684  0.87865638  0.92342026    -0.06800
C1181       C  0.85332092  0.81866689  0.92023602    -0.18000
C1182       C  0.82389328  0.78672143  0.89174142     0.10300
S1183       S  0.88440824  0.98429910  0.89574670    -0.33000
S1184       S  0.79808727  0.70907702  0.89154781    -0.33000
H1185       H  0.74492534  0.69282231  0.87476117     0.28300
H1186       H  0.94253844  0.00217118  0.90541723     0.28300
H1187       H  0.82382199  0.89758543  0.84828109     0.18900
H1188       H  0.86097327  0.79610061  0.94034378     0.18900
C1189       C  0.82598115  0.82598070  0.63915770    -0.06900
C1190       C  0.79268509  0.83394472  0.61458631    -0.18000
C1191       C  0.81748127  0.85899188  0.58389795     0.10300
C1192       C  0.87779992  0.87843192  0.57772679    -0.06800
C1193       C  0.91120024  0.87111468  0.60263276    -0.18000
C1194       C  0.88628753  0.84561252  0.63314930     0.10300
S1195       S  0.76879782  0.86154763  0.55327953    -0.33000
S1196       S  0.93474527  0.84216427  0.66369884    -0.33000
H1197       H  0.90898631  0.85456483  0.69093868     0.28300
H1198       H  0.79038545  0.84192163  0.52713990     0.28300
H1199       H  0.74611881  0.81829469  0.61881498     0.18900
H1200       H  0.95784988  0.88683858  0.59871808     0.18900
loop_ 
_geom_bond_atom_site_label_1 
_geom_bond_atom_site_label_2 
_geom_bond_distance 
_geom_bond_site_symmetry_2 
_ccdc_geom_bond_type 
C1            H2   1.112       .  S
C1            C7   1.535       .  S
C1            C6   1.533       .  S
C1            C5   1.535       .  S
C3            H4   1.112       .  S
C3            C9   1.533       .  S
C3            C8   1.535       .  S
C3           C10   1.533       .  S
C5            C8   1.405       .  D
C5           C41   1.505       .  S
C6            C9   1.401       .  D
C6           C49   1.499       .  S
C7           C10   1.404       .  D
C7           C25   1.504       .  S
C8           C35   1.504       .  S
C9           C55   1.498       .  S
C10          C29   1.503       .  S
C11          H12   1.112       .  S
C11          C17   1.532       .  S
C11          C16   1.535       .  S
C11          C15   1.533       .  S
C13          H14   1.112       .  S
C13          C19   1.533       .  S
C13          C18   1.533       .  S
C13          C20   1.536       .  S
C15          C18   1.399       .  D
C15          C47   1.495       .  S
C16          C19   1.401       .  D
C16          C23   1.499       .  S
C17          C20   1.404       .  D
C17          C43   1.506       .  S
C18          C53   1.501       .  S
C19          C31   1.502       .  S
C20          C37   1.500       .  S
C21          N22   1.364       .  A
C21          N26   1.367       .  A
C21         C139   1.475       .  S
N22          C23   1.355       .  A
C23          N24   1.344       .  A
N24          C25   1.344       .  A
C25          N26   1.359       .  A
C27          N28   1.369       .  A
C27          N32   1.367       .  A
C27         C127   1.478       .  S
N28          C29   1.360       .  A
C29          N30   1.340       .  A
N30          C31   1.340       .  A
C31          N32   1.356       .  A
C33          N38   1.364       .  A
C33         N334   1.367       .  A
C33         C118   1.467       .  S
N34          C35   1.358       .  A
N34         C333   1.367   1_545  A
C35          N36   1.342   1_545  A
N36         C337   1.341       .  A
C37          N38   1.355       .  A
C37         N336   1.341       .  A
C39          N40   1.369   1_565  A
C39         N344   1.370       .  A
C39         C106   1.485   1_565  S
N40          C41   1.356       .  A
C41          N42   1.339   1_545  A
N42         C343   1.340       .  A
C43          N44   1.361       .  A
C43         N342   1.340       .  A
N44         C339   1.370       .  A
C45          N46   1.363       .  A
C45         N650   1.366   1_455  A
C45          C91   1.472       .  S
N46          C47   1.355       .  A
C47          N48   1.343   1_455  A
N48         C649   1.343       .  A
C49          N50   1.357       .  A
C49         N648   1.343       .  A
N50         C645   1.366       .  A
C51          N52   1.366   1_655  A
C51         N656   1.364       .  A
C51          C79   1.470       .  S
N52          C53   1.356       .  A
C53          N54   1.343   1_455  A
N54         C655   1.344       .  A
C55          N56   1.357       .  A
C55         N654   1.344       .  A
N56         C651   1.364       .  A
O57          C72   1.253       .  A
O57        Al215   1.864       .  S
C58         C103   1.490       .  S
C58          O68   1.253       .  A
C58         O359   1.266   1_545  A
O59         C358   1.266       .  A
O59        Al211   1.932   1_454  S
O60          C62   1.254       .  A
O60        Al811   1.866   1_554  S
Al61         O69   1.867   1_655  S
Al61        O209   1.932   1_655  S
Al61        O810   1.866       .  S
Al61        O671   1.935       .  S
Al61        O370   1.785       .  S
C62         C142   1.482       .  S
C62          O75   1.263       .  A
O63         C673   1.254       .  A
O63        Al365   1.857       .  S
O64          C77   1.255       .  A
O64         Al74   1.867       .  S
Al65         O75   1.924       .  S
Al65        O207   1.864   1_554  S
Al65        O363   1.856       .  S
Al65        O528   1.923   1_554  S
Al65       O1120   1.787   1_554  S
O66          C73   1.264   1_455  A
O66        Al224   1.926   1_554  S
O67         C376   1.265   1_545  A
O67         Al74   1.926       .  S
O68        Al224   1.868   1_554  S
O69          C76   1.254       .  A
O70         Al74   1.787   1_655  S
O70        Al361   1.786   1_545  S
O70       Al1115   1.787       .  S
O71          C72   1.267       .  A
O71        Al661   1.935       .  S
C72         C130   1.486       .  S
C73          C94   1.481   1_655  S
C73         O663   1.254       .  A
Al74        O216   1.926       .  S
Al74        O218   1.868       .  S
C76         C115   1.479       .  S
C76         O367   1.265       .  A
C77          C82   1.479       .  S
C77         O678   1.263   1_455  A
O78         C677   1.263       .  A
O78        Al515   1.924       .  S
C79          C84   1.410   1_655  A
C79         C680   1.404       .  A
C80          C81   1.400       .  A
C80         C679   1.404       .  A
C80          H89   1.084       .  S
C81         C682   1.414       .  A
C81          S85   1.802       .  S
C82          C83   1.407       .  A
C82         C681   1.414   1_455  A
C83          C84   1.393       .  A
C83          H90   1.084       .  S
C84          S86   1.805       .  S
S85          H88   1.408       .  S
S86          H87   1.407       .  S
C91          C92   1.405       .  A
C91         C696   1.410   1_455  A
C92          C93   1.399       .  A
C92         H101   1.082       .  S
C93          C94   1.414       .  A
C93          S97   1.802       .  S
C94         C695   1.409   1_455  A
C95          C96   1.393       .  A
C95         C694   1.409       .  A
C95         H102   1.082       .  S
C96         C691   1.410       .  A
C96          S98   1.805       .  S
S97         H100   1.407       .  S
S98          H99   1.407       .  S
C103        C108   1.421       .  A
C103        C404   1.406   1_545  A
C104        C105   1.403       .  A
C104        C403   1.406       .  A
C104        H113   1.084       .  S
C105        C406   1.416       .  A
C105        S109   1.802       .  S
C106        C107   1.402       .  A
C106        C405   1.416   1_545  A
C107        C108   1.395       .  A
C107        H114   1.084       .  S
C108        S110   1.802       .  S
S109        H112   1.407       .  S
S110        H111   1.407       .  S
C115        C120   1.419       .  A
C115        C416   1.405       .  A
C116        C117   1.400       .  A
C116        C415   1.405   1_545  A
C116        H125   1.084       .  S
C117        C418   1.410   1_545  A
C117        S121   1.803       .  S
C118        C119   1.397       .  A
C118        C417   1.410       .  A
C119        C120   1.393       .  A
C119        H126   1.084       .  S
C120        S122   1.800       .  S
S121        H124   1.406       .  S
S122        H123   1.403       .  S
C127        C128   1.399       .  A
C127        C132   1.414       .  A
C128        C129   1.393       .  A
C128        H137   1.084       .  S
C129        C130   1.422       .  A
C129        S133   1.803       .  S
C130        C131   1.406       .  A
C131        C132   1.402       .  A
C131        H138   1.083       .  S
C132        S134   1.801       .  S
S133        H136   1.403       .  S
S134        H135   1.407       .  S
C139        C140   1.405       .  A
C139        C144   1.411       .  A
C140        C141   1.398       .  A
C140        H149   1.085       .  S
C141        C142   1.414       .  A
C141        S145   1.802       .  S
C142        C143   1.409       .  A
C143        C144   1.396       .  A
C143        H150   1.084       .  S
C144        S146   1.805       .  S
S145        H148   1.408       .  S
S146        H147   1.407       .  S
C151        H152   1.112       .  S
C151        C157   1.535       .  S
C151        C156   1.533       .  S
C151        C155   1.535       .  S
C153        H154   1.112       .  S
C153        C159   1.533       .  S
C153        C158   1.535       .  S
C153        C160   1.533       .  S
C155        C158   1.405       .  D
C155        C191   1.505       .  S
C156        C159   1.401       .  D
C156        C199   1.499       .  S
C157        C160   1.404       .  D
C157        C175   1.504       .  S
C158        C185   1.504       .  S
C159        C205   1.498       .  S
C160        C179   1.503       .  S
C161        H162   1.112       .  S
C161        C167   1.532       .  S
C161        C166   1.535       .  S
C161        C165   1.533       .  S
C163        H164   1.112       .  S
C163        C169   1.533       .  S
C163        C168   1.533       .  S
C163        C170   1.536       .  S
C165        C168   1.399       .  D
C165        C197   1.495       .  S
C166        C169   1.401       .  D
C166        C173   1.499       .  S
C167        C170   1.404       .  D
C167        C193   1.506       .  S
C168        C203   1.501       .  S
C169        C181   1.502       .  S
C170        C187   1.500       .  S
C171        N172   1.364       .  A
C171        N176   1.367       .  A
C171        C289   1.475       .  S
N172        C173   1.355       .  A
C173        N174   1.344       .  A
N174        C175   1.344       .  A
C175        N176   1.359       .  A
C177        N178   1.369       .  A
C177        N182   1.367       .  A
C177        C277   1.478       .  S
N178        C179   1.360       .  A
C179        N180   1.340       .  A
N180        C181   1.340       .  A
C181        N182   1.356       .  A
C183        N484   1.367       .  A
C183        N188   1.364       .  A
C183        C268   1.467       .  S
N184        C483   1.367   1_545  A
N184        C185   1.358       .  A
C185        N186   1.342   1_545  A
N186        C487   1.341       .  A
C187        N486   1.341       .  A
C187        N188   1.355       .  A
C189        N190   1.369   1_565  A
C189        N494   1.370       .  A
C189        C256   1.485   1_565  S
N190        C191   1.356       .  A
C191        N192   1.339   1_545  A
N192        C493   1.340       .  A
C193        N492   1.340       .  A
C193        N194   1.361       .  A
N194        C489   1.370       .  A
C195        N196   1.363       .  A
C195        N800   1.366   1_455  A
C195        C241   1.472       .  S
N196        C197   1.355       .  A
C197        N198   1.343   1_455  A
N198        C799   1.343       .  A
C199        N798   1.343       .  A
C199        N200   1.357       .  A
N200        C795   1.366       .  A
C201        N202   1.366   1_655  A
C201        N806   1.364       .  A
C201        C229   1.470       .  S
N202        C203   1.356       .  A
C203        N204   1.343   1_455  A
N204        C805   1.344       .  A
C205        N804   1.344       .  A
C205        N206   1.357       .  A
N206        C801   1.364       .  A
O207        C222   1.253       .  A
C208        C253   1.490       .  S
C208        O218   1.253       .  A
C208        O509   1.266   1_545  A
O209        C508   1.266       .  A
O210        C212   1.254       .  A
O210       Al661   1.866       .  S
Al211       O660   1.866   1_556  S
Al211       O219   1.867   1_655  S
Al211       O821   1.935       .  S
Al211       O520   1.785       .  S
C212        C292   1.482       .  S
C212        O225   1.263       .  A
O213        C823   1.254       .  A
O213       Al515   1.857       .  S
O214        C227   1.255       .  A
O214       Al224   1.867       .  S
Al215       O513   1.856       .  S
Al215       O378   1.923       .  S
Al215       O225   1.924       .  S
Al215       O970   1.787       .  S
O216        C223   1.264   1_455  A
O217        C526   1.265   1_545  A
O217       Al224   1.926       .  S
O219        C226   1.254       .  A
O220       Al511   1.786   1_545  S
O220       Al965   1.787   1_556  S
O220       Al224   1.787   1_655  S
O221        C222   1.267       .  A
O221       Al811   1.935       .  S
C222        C280   1.486       .  S
C223        C244   1.481   1_655  S
C223        O813   1.254       .  A
C226        C265   1.479       .  S
C226        O517   1.265       .  A
C227        C232   1.479       .  S
C227        O828   1.263   1_455  A
O228        C827   1.263       .  A
O228       Al365   1.924   1_556  S
C229        C830   1.404       .  A
C229        C234   1.410   1_655  A
C230        C829   1.404       .  A
C230        C231   1.400       .  A
C230        H239   1.084       .  S
C231        C832   1.414       .  A
C231        S235   1.802       .  S
C232        C831   1.414   1_455  A
C232        C233   1.407       .  A
C233        C234   1.393       .  A
C233        H240   1.084       .  S
C234        S236   1.805       .  S
S235        H238   1.408       .  S
S236        H237   1.407       .  S
C241        C242   1.405       .  A
C241        C846   1.410   1_455  A
C242        C243   1.399       .  A
C242        H251   1.082       .  S
C243        C244   1.414       .  A
C243        S247   1.802       .  S
C244        C845   1.409   1_455  A
C245        C844   1.409       .  A
C245        C246   1.393       .  A
C245        H252   1.082       .  S
C246        C841   1.410       .  A
C246        S248   1.805       .  S
S247        H250   1.407       .  S
S248        H249   1.407       .  S
C253        C554   1.406   1_545  A
C253        C258   1.421       .  A
C254        C553   1.406       .  A
C254        C255   1.403       .  A
C254        H263   1.084       .  S
C255        C556   1.416       .  A
C255        S259   1.802       .  S
C256        C555   1.416   1_545  A
C256        C257   1.402       .  A
C257        C258   1.395       .  A
C257        H264   1.084       .  S
C258        S260   1.802       .  S
S259        H262   1.407       .  S
S260        H261   1.407       .  S
C265        C566   1.405       .  A
C265        C270   1.419       .  A
C266        C565   1.405   1_545  A
C266        C267   1.400       .  A
C266        H275   1.084       .  S
C267        C568   1.410   1_545  A
C267        S271   1.803       .  S
C268        C567   1.410       .  A
C268        C269   1.397       .  A
C269        C270   1.393       .  A
C269        H276   1.084       .  S
C270        S272   1.800       .  S
S271        H274   1.406       .  S
S272        H273   1.403       .  S
C277        C278   1.399       .  A
C277        C282   1.414       .  A
C278        C279   1.393       .  A
C278        H287   1.084       .  S
C279        C280   1.422       .  A
C279        S283   1.803       .  S
C280        C281   1.406       .  A
C281        C282   1.402       .  A
C281        H288   1.083       .  S
C282        S284   1.801       .  S
S283        H286   1.403       .  S
S284        H285   1.407       .  S
C289        C290   1.405       .  A
C289        C294   1.411       .  A
C290        C291   1.398       .  A
C290        H299   1.085       .  S
C291        C292   1.414       .  A
C291        S295   1.802       .  S
C292        C293   1.409       .  A
C293        C294   1.396       .  A
C293        H300   1.084       .  S
C294        S296   1.805       .  S
S295        H298   1.408       .  S
S296        H297   1.407       .  S
C301        H302   1.112       .  S
C301        C307   1.535       .  S
C301        C306   1.533       .  S
C301        C305   1.535       .  S
C303        H304   1.112       .  S
C303        C309   1.533       .  S
C303        C308   1.535       .  S
C303        C310   1.533       .  S
C305        C308   1.404       .  D
C305        C341   1.505       .  S
C306        C309   1.401       .  D
C306        C349   1.499       .  S
C307        C310   1.404       .  D
C307        C325   1.504       .  S
C308        C335   1.504       .  S
C309        C355   1.498       .  S
C310        C329   1.503       .  S
C311        H312   1.112       .  S
C311        C317   1.532       .  S
C311        C316   1.535       .  S
C311        C315   1.533       .  S
C313        H314   1.112       .  S
C313        C319   1.533       .  S
C313        C318   1.533       .  S
C313        C320   1.536       .  S
C315        C318   1.399       .  D
C315        C347   1.494       .  S
C316        C319   1.401       .  D
C316        C323   1.499       .  S
C317        C320   1.404       .  D
C317        C343   1.506       .  S
C318        C353   1.501       .  S
C319        C331   1.502       .  S
C320        C337   1.500       .  S
C321        N322   1.364       .  A
C321        N326   1.367       .  A
C321        C439   1.475       .  S
N322        C323   1.355       .  A
C323        N324   1.344       .  A
N324        C325   1.344       .  A
C325        N326   1.359       .  A
C327        N328   1.369       .  A
C327        N332   1.367       .  A
C327        C427   1.478       .  S
N328        C329   1.360       .  A
C329        N330   1.340       .  A
N330        C331   1.340       .  A
C331        N332   1.356       .  A
C333        N338   1.364       .  A
C333        C418   1.467       .  S
N334        C335   1.358       .  A
C335        N336   1.342       .  A
C337        N338   1.355       .  A
C339        N340   1.369       .  A
C339        C406   1.485       .  S
N340        C341   1.356       .  A
C341        N342   1.340       .  A
C343        N344   1.361       .  A
C345        N346   1.363       .  A
C345        N950   1.366   1_455  A
C345        C391   1.472       .  S
N346        C347   1.355       .  A
C347        N348   1.343   1_455  A
N348        C949   1.343       .  A
C349        N948   1.343       .  A
C349        N350   1.357       .  A
N350        C945   1.366       .  A
C351        N352   1.366   1_655  A
C351        N956   1.364       .  A
C351        C379   1.470       .  S
N352        C353   1.356       .  A
C353        N354   1.343   1_455  A
N354        C955   1.344       .  A
C355        N954   1.344       .  A
C355        N356   1.357       .  A
N356        C951   1.364       .  A
O357        C372   1.253       .  A
O357       Al515   1.865   1_565  S
C358        C403   1.490       .  S
C358        O368   1.253       .  A
O359       Al511   1.933   1_454  S
O360        C362   1.254       .  A
O360      Al1111   1.866   1_554  S
Al361       O509   1.933   1_655  S
Al361      O1110   1.866       .  S
Al361       O369   1.868   1_655  S
Al361       O971   1.935       .  S
C362        C442   1.482       .  S
C362        O375   1.263       .  A
O363        C973   1.254       .  A
O364        C377   1.255       .  A
O364       Al374   1.867       .  S
Al365       O507   1.865   1_544  S
Al365       O375   1.924   1_545  S
Al365       O820   1.787   1_554  S
O366        C373   1.264   1_455  A
O366       Al524   1.926   1_554  S
O367       Al374   1.927       .  S
O368       Al524   1.868   1_554  S
O369        C376   1.254       .  A
O370       Al815   1.787       .  S
O370       Al374   1.786   1_655  S
O371        C372   1.267       .  A
O371       Al961   1.935       .  S
C372        C430   1.486       .  S
C373        C394   1.481   1_655  S
C373        O963   1.254       .  A
Al374       O516   1.926       .  S
Al374       O518   1.868       .  S
C376        C415   1.479       .  S
C377        C382   1.479       .  S
C377        O978   1.263   1_455  A
O378        C977   1.263       .  A
C379        C980   1.404       .  A
C379        C384   1.410   1_655  A
C380        C979   1.404       .  A
C380        C381   1.400       .  A
C380        H389   1.084       .  S
C381        C982   1.414       .  A
C381        S385   1.802       .  S
C382        C981   1.414   1_455  A
C382        C383   1.407       .  A
C383        C384   1.393       .  A
C383        H390   1.084       .  S
C384        S386   1.805       .  S
S385        H388   1.408       .  S
S386        H387   1.407       .  S
C391        C392   1.406       .  A
C391        C996   1.410   1_455  A
C392        C393   1.399       .  A
C392        H401   1.082       .  S
C393        C394   1.414       .  A
C393        S397   1.802       .  S
C394        C995   1.409   1_455  A
C395        C994   1.409       .  A
C395        C396   1.393       .  A
C395        H402   1.082       .  S
C396        C991   1.410       .  A
C396        S398   1.805       .  S
S397        H400   1.407       .  S
S398        H399   1.407       .  S
C403        C408   1.421       .  A
C404        C405   1.403       .  A
C404        H413   1.084       .  S
C405        S409   1.802       .  S
C406        C407   1.402       .  A
C407        C408   1.395       .  A
C407        H414   1.084       .  S
C408        S410   1.802       .  S
S409        H412   1.407       .  S
S410        H411   1.407       .  S
C415        C420   1.419       .  A
C416        C417   1.400       .  A
C416        H425   1.084       .  S
C417        S421   1.803       .  S
C418        C419   1.397       .  A
C419        C420   1.393       .  A
C419        H426   1.084       .  S
C420        S422   1.800       .  S
S421        H424   1.406       .  S
S422        H423   1.403       .  S
C427        C428   1.399       .  A
C427        C432   1.414       .  A
C428        C429   1.394       .  A
C428        H437   1.084       .  S
C429        C430   1.422       .  A
C429        S433   1.804       .  S
C430        C431   1.406       .  A
C431        C432   1.402       .  A
C431        H438   1.083       .  S
C432        S434   1.801       .  S
S433        H436   1.403   1_565  S
S434        H435   1.407       .  S
C439        C440   1.405       .  A
C439        C444   1.411       .  A
C440        C441   1.399       .  A
C440        H449   1.085       .  S
C441        C442   1.414       .  A
C441        S445   1.802       .  S
C442        C443   1.409       .  A
C443        C444   1.396       .  A
C443        H450   1.084       .  S
C444        S446   1.805       .  S
S445        H448   1.408       .  S
S446        H447   1.407       .  S
C451        H452   1.112       .  S
C451        C457   1.535       .  S
C451        C456   1.533       .  S
C451        C455   1.535       .  S
C453        H454   1.112       .  S
C453        C459   1.533       .  S
C453        C458   1.535       .  S
C453        C460   1.533       .  S
C455        C458   1.404       .  D
C455        C491   1.505       .  S
C456        C459   1.401       .  D
C456        C499   1.499       .  S
C457        C460   1.404       .  D
C457        C475   1.504       .  S
C458        C485   1.504       .  S
C459        C505   1.498       .  S
C460        C479   1.503       .  S
C461        H462   1.112       .  S
C461        C467   1.532       .  S
C461        C466   1.535       .  S
C461        C465   1.533       .  S
C463        H464   1.112       .  S
C463        C469   1.533       .  S
C463        C468   1.533       .  S
C463        C470   1.536       .  S
C465        C468   1.399       .  D
C465        C497   1.494       .  S
C466        C469   1.401       .  D
C466        C473   1.499       .  S
C467        C470   1.404       .  D
C467        C493   1.506       .  S
C468        C503   1.501       .  S
C469        C481   1.502       .  S
C470        C487   1.500       .  S
C471        N472   1.364       .  A
C471        N476   1.367       .  A
C471        C589   1.475       .  S
N472        C473   1.355       .  A
C473        N474   1.344       .  A
N474        C475   1.344       .  A
C475        N476   1.359       .  A
C477        N478   1.369       .  A
C477        N482   1.367       .  A
C477        C577   1.478       .  S
N478        C479   1.360       .  A
C479        N480   1.340       .  A
N480        C481   1.340       .  A
C481        N482   1.356       .  A
C483        N488   1.364       .  A
C483        C568   1.467       .  S
N484        C485   1.358       .  A
C485        N486   1.342       .  A
C487        N488   1.355       .  A
C489        N490   1.369       .  A
C489        C556   1.485       .  S
N490        C491   1.356       .  A
C491        N492   1.340       .  A
C493        N494   1.361       .  A
C495        N496   1.363       .  A
C495       N1100   1.366   1_455  A
C495        C541   1.472       .  S
N496        C497   1.355       .  A
C497        N498   1.343   1_455  A
N498       C1099   1.343       .  A
C499       N1098   1.343       .  A
C499        N500   1.357       .  A
N500       C1095   1.366       .  A
C501        N502   1.366   1_655  A
C501       N1106   1.364       .  A
C501        C529   1.470       .  S
N502        C503   1.356       .  A
C503        N504   1.343   1_455  A
N504       C1105   1.344       .  A
C505       N1104   1.344       .  A
C505        N506   1.357       .  A
N506       C1101   1.364       .  A
O507        C522   1.253       .  A
C508        C553   1.490       .  S
C508        O518   1.253       .  A
O510        C512   1.254       .  A
O510       Al961   1.866       .  S
Al511       O960   1.866   1_556  S
Al511       O519   1.868   1_655  S
Al511      O1121   1.935       .  S
C512        C592   1.482       .  S
C512        O525   1.263       .  A
O513       C1123   1.254       .  A
O514        C527   1.255       .  A
O514       Al524   1.867       .  S
Al515       O525   1.924   1_545  S
Al515       O670   1.787       .  S
O516        C523   1.264   1_455  A
O517       Al524   1.927       .  S
O519        C526   1.254       .  A
O520       Al665   1.787   1_556  S
O520       Al524   1.786   1_655  S
O521        C522   1.267       .  A
O521      Al1111   1.935       .  S
C522        C580   1.486       .  S
C523        C544   1.481   1_655  S
C523       O1113   1.254       .  A
C526        C565   1.479       .  S
C527        C532   1.479       .  S
C527       O1128   1.263   1_455  A
O528       C1127   1.263       .  A
C529       C1130   1.404       .  A
C529        C534   1.410   1_655  A
C530       C1129   1.404       .  A
C530        C531   1.400       .  A
C530        H539   1.084       .  S
C531       C1132   1.414       .  A
C531        S535   1.802       .  S
C532       C1131   1.414   1_455  A
C532        C533   1.407       .  A
C533        C534   1.393       .  A
C533        H540   1.084       .  S
C534        S536   1.805       .  S
S535        H538   1.408       .  S
S536        H537   1.407       .  S
C541        C542   1.406       .  A
C541       C1146   1.410   1_455  A
C542        C543   1.399       .  A
C542        H551   1.082       .  S
C543        C544   1.414       .  A
C543        S547   1.802       .  S
C544       C1145   1.409   1_455  A
C545       C1144   1.409       .  A
C545        C546   1.393       .  A
C545        H552   1.082       .  S
C546       C1141   1.410       .  A
C546        S548   1.805       .  S
S547        H550   1.407       .  S
S548        H549   1.407       .  S
C553        C558   1.421       .  A
C554        C555   1.403       .  A
C554        H563   1.084       .  S
C555        S559   1.802       .  S
C556        C557   1.402       .  A
C557        C558   1.395       .  A
C557        H564   1.084       .  S
C558        S560   1.802       .  S
S559        H562   1.407       .  S
S560        H561   1.407       .  S
C565        C570   1.419       .  A
C566        C567   1.400       .  A
C566        H575   1.084       .  S
C567        S571   1.803       .  S
C568        C569   1.397       .  A
C569        C570   1.393       .  A
C569        H576   1.084       .  S
C570        S572   1.800       .  S
S571        H574   1.406       .  S
S572        H573   1.403       .  S
C577        C578   1.399       .  A
C577        C582   1.414       .  A
C578        C579   1.394       .  A
C578        H587   1.084       .  S
C579        C580   1.422       .  A
C579        S583   1.804       .  S
C580        C581   1.406       .  A
C581        C582   1.402       .  A
C581        H588   1.083       .  S
C582        S584   1.801       .  S
S583        H586   1.403   1_565  S
S584        H585   1.407       .  S
C589        C590   1.405       .  A
C589        C594   1.411       .  A
C590        C591   1.399       .  A
C590        H599   1.085       .  S
C591        C592   1.414       .  A
C591        S595   1.802       .  S
C592        C593   1.409       .  A
C593        C594   1.396       .  A
C593        H600   1.084       .  S
C594        S596   1.805       .  S
S595        H598   1.408       .  S
S596        H597   1.407       .  S
C601        H602   1.112       .  S
C601        C607   1.535       .  S
C601        C606   1.533       .  S
C601        C605   1.535       .  S
C603        H604   1.112       .  S
C603        C609   1.533       .  S
C603        C608   1.535       .  S
C603        C610   1.533       .  S
C605        C608   1.405       .  D
C605        C641   1.505       .  S
C606        C609   1.401       .  D
C606        C649   1.499       .  S
C607        C610   1.404       .  D
C607        C625   1.504       .  S
C608        C635   1.504       .  S
C609        C655   1.498       .  S
C610        C629   1.503       .  S
C611        H612   1.112       .  S
C611        C617   1.532       .  S
C611        C616   1.535       .  S
C611        C615   1.533       .  S
C613        H614   1.112       .  S
C613        C619   1.533       .  S
C613        C618   1.533       .  S
C613        C620   1.536       .  S
C615        C618   1.399       .  D
C615        C647   1.495       .  S
C616        C619   1.401       .  D
C616        C623   1.499       .  S
C617        C620   1.404       .  D
C617        C643   1.506       .  S
C618        C653   1.501       .  S
C619        C631   1.502       .  S
C620        C637   1.500       .  S
C621        N622   1.364       .  A
C621        N626   1.367       .  A
C621        C739   1.475       .  S
N622        C623   1.355       .  A
C623        N624   1.344       .  A
N624        C625   1.344       .  A
C625        N626   1.359       .  A
C627        N628   1.369       .  A
C627        N632   1.367       .  A
C627        C727   1.478       .  S
N628        C629   1.360       .  A
C629        N630   1.340       .  A
N630        C631   1.340       .  A
C631        N632   1.356       .  A
C633        N934   1.367       .  A
C633        N638   1.364       .  A
C633        C718   1.467       .  S
N634        C933   1.367   1_545  A
N634        C635   1.358       .  A
C635        N636   1.342   1_545  A
N636        C937   1.341       .  A
C637        N936   1.341       .  A
C637        N638   1.355       .  A
C639        N640   1.369   1_565  A
C639        N944   1.370       .  A
C639        C706   1.485   1_565  S
N640        C641   1.356       .  A
C641        N642   1.339   1_545  A
N642        C943   1.340       .  A
C643        N942   1.340       .  A
C643        N644   1.361       .  A
N644        C939   1.370       .  A
C645        N646   1.363       .  A
C645        C691   1.472       .  S
N646        C647   1.355       .  A
C647        N648   1.343       .  A
C649        N650   1.357       .  A
C651        N652   1.366       .  A
C651        C679   1.470       .  S
N652        C653   1.356       .  A
C653        N654   1.343       .  A
C655        N656   1.357       .  A
O657        C672   1.253       .  A
O657       Al815   1.864       .  S
C658        C703   1.490       .  S
C658        O668   1.253       .  A
C658        O959   1.266   1_545  A
O659        C958   1.266       .  A
O659       Al811   1.932   1_554  S
O660        C662   1.254       .  A
Al661       O809   1.932       .  S
Al661       O669   1.867       .  S
Al661       O970   1.785       .  S
C662        C742   1.482       .  S
C662        O675   1.263       .  A
O663       Al965   1.857       .  S
O664        C677   1.255       .  A
O664       Al674   1.867       .  S
Al665       O807   1.864   1_554  S
Al665       O963   1.856       .  S
Al665      O1128   1.923   1_554  S
Al665       O675   1.924       .  S
O666        C673   1.264       .  A
O666       Al824   1.926   1_554  S
O667        C976   1.265   1_545  A
O667       Al674   1.926       .  S
O668       Al824   1.868   1_554  S
O669        C676   1.254       .  A
O670       Al961   1.786   1_545  S
O670       Al674   1.787       .  S
O671        C672   1.267       .  A
C672        C730   1.486       .  S
C673        C694   1.481       .  S
Al674       O816   1.926       .  S
Al674       O818   1.868       .  S
C676        C715   1.479       .  S
C676        O967   1.265       .  A
C677        C682   1.479       .  S
O678      Al1115   1.924       .  S
C679        C684   1.410       .  A
C680        C681   1.400       .  A
C680        H689   1.084       .  S
C681        S685   1.802       .  S
C682        C683   1.407       .  A
C683        C684   1.393       .  A
C683        H690   1.084       .  S
C684        S686   1.805       .  S
S685        H688   1.408       .  S
S686        H687   1.407       .  S
C691        C692   1.405       .  A
C692        C693   1.399       .  A
C692        H701   1.082       .  S
C693        C694   1.414       .  A
C693        S697   1.802       .  S
C695        C696   1.393       .  A
C695        H702   1.082       .  S
C696        S698   1.805       .  S
S697        H700   1.407       .  S
S698        H699   1.407       .  S
C703       C1004   1.406   1_545  A
C703        C708   1.421       .  A
C704       C1003   1.406       .  A
C704        C705   1.403       .  A
C704        H713   1.084       .  S
C705       C1006   1.416       .  A
C705        S709   1.802       .  S
C706       C1005   1.416   1_545  A
C706        C707   1.402       .  A
C707        C708   1.395       .  A
C707        H714   1.084       .  S
C708        S710   1.802       .  S
S709        H712   1.407       .  S
S710        H711   1.407       .  S
C715       C1016   1.405       .  A
C715        C720   1.419       .  A
C716       C1015   1.405   1_545  A
C716        C717   1.400       .  A
C716        H725   1.084       .  S
C717       C1018   1.410   1_545  A
C717        S721   1.803       .  S
C718       C1017   1.410       .  A
C718        C719   1.397       .  A
C719        C720   1.393       .  A
C719        H726   1.084       .  S
C720        S722   1.800       .  S
S721        H724   1.406       .  S
S722        H723   1.403       .  S
C727        C728   1.399       .  A
C727        C732   1.414       .  A
C728        C729   1.393       .  A
C728        H737   1.084       .  S
C729        C730   1.422       .  A
C729        S733   1.803       .  S
C730        C731   1.406       .  A
C731        C732   1.402       .  A
C731        H738   1.084       .  S
C732        S734   1.801       .  S
S733        H736   1.403       .  S
S734        H735   1.407       .  S
C739        C740   1.405       .  A
C739        C744   1.411       .  A
C740        C741   1.398       .  A
C740        H749   1.085       .  S
C741        C742   1.414       .  A
C741        S745   1.802       .  S
C742        C743   1.409       .  A
C743        C744   1.396       .  A
C743        H750   1.084       .  S
C744        S746   1.805       .  S
S745        H748   1.408       .  S
S746        H747   1.407       .  S
C751        H752   1.112       .  S
C751        C757   1.535       .  S
C751        C756   1.533       .  S
C751        C755   1.535       .  S
C753        H754   1.112       .  S
C753        C759   1.533       .  S
C753        C758   1.535       .  S
C753        C760   1.533       .  S
C755        C758   1.405       .  D
C755        C791   1.505       .  S
C756        C759   1.401       .  D
C756        C799   1.499       .  S
C757        C760   1.404       .  D
C757        C775   1.504       .  S
C758        C785   1.504       .  S
C759        C805   1.498       .  S
C760        C779   1.503       .  S
C761        H762   1.112       .  S
C761        C767   1.532       .  S
C761        C766   1.535       .  S
C761        C765   1.533       .  S
C763        H764   1.112       .  S
C763        C769   1.533       .  S
C763        C768   1.533       .  S
C763        C770   1.536       .  S
C765        C768   1.399       .  D
C765        C797   1.495       .  S
C766        C769   1.401       .  D
C766        C773   1.499       .  S
C767        C770   1.404       .  D
C767        C793   1.506       .  S
C768        C803   1.501       .  S
C769        C781   1.502       .  S
C770        C787   1.500       .  S
C771        N772   1.364       .  A
C771        N776   1.367       .  A
C771        C889   1.475       .  S
N772        C773   1.355       .  A
C773        N774   1.344       .  A
N774        C775   1.344       .  A
C775        N776   1.359       .  A
C777        N778   1.369       .  A
C777        N782   1.367       .  A
C777        C877   1.478       .  S
N778        C779   1.360       .  A
C779        N780   1.340       .  A
N780        C781   1.340       .  A
C781        N782   1.356       .  A
C783       N1084   1.367       .  A
C783        N788   1.364       .  A
C783        C868   1.467       .  S
N784       C1083   1.367   1_545  A
N784        C785   1.358       .  A
C785        N786   1.342   1_545  A
N786       C1087   1.341       .  A
C787       N1086   1.341       .  A
C787        N788   1.355       .  A
C789        N790   1.369   1_565  A
C789       N1094   1.370       .  A
C789        C856   1.485   1_565  S
N790        C791   1.356       .  A
C791        N792   1.339   1_545  A
N792       C1093   1.340       .  A
C793       N1092   1.340       .  A
C793        N794   1.361       .  A
N794       C1089   1.370       .  A
C795        N796   1.363       .  A
C795        C841   1.472       .  S
N796        C797   1.355       .  A
C797        N798   1.343       .  A
C799        N800   1.357       .  A
C801        N802   1.366       .  A
C801        C829   1.470       .  S
N802        C803   1.356       .  A
C803        N804   1.343       .  A
C805        N806   1.357       .  A
O807        C822   1.253       .  A
C808        C853   1.490       .  S
C808        O818   1.253       .  A
C808       O1109   1.266   1_545  A
O809       C1108   1.266       .  A
O810        C812   1.254       .  A
Al811       O819   1.867       .  S
Al811      O1120   1.785       .  S
C812        C892   1.482       .  S
C812        O825   1.263       .  A
O813      Al1115   1.857       .  S
O814        C827   1.255       .  A
O814       Al824   1.867       .  S
Al815      O1113   1.856       .  S
Al815       O978   1.923       .  S
Al815       O825   1.924       .  S
O816        C823   1.264       .  A
O817       C1126   1.265   1_545  A
O817       Al824   1.926       .  S
O819        C826   1.254       .  A
O820      Al1111   1.786   1_545  S
O820       Al824   1.787       .  S
O821        C822   1.267       .  A
C822        C880   1.486       .  S
C823        C844   1.481       .  S
C826        C865   1.479       .  S
C826       O1117   1.265       .  A
C827        C832   1.479       .  S
O828       Al965   1.924   1_556  S
C829        C834   1.410       .  A
C830        C831   1.400       .  A
C830        H839   1.084       .  S
C831        S835   1.802       .  S
C832        C833   1.407       .  A
C833        C834   1.393       .  A
C833        H840   1.084       .  S
C834        S836   1.805       .  S
S835        H838   1.408       .  S
S836        H837   1.407       .  S
C841        C842   1.405       .  A
C842        C843   1.399       .  A
C842        H851   1.082       .  S
C843        C844   1.414       .  A
C843        S847   1.802       .  S
C845        C846   1.393       .  A
C845        H852   1.082       .  S
C846        S848   1.805       .  S
S847        H850   1.407       .  S
S848        H849   1.407       .  S
C853       C1154   1.406   1_545  A
C853        C858   1.421       .  A
C854       C1153   1.406       .  A
C854        C855   1.403       .  A
C854        H863   1.084       .  S
C855       C1156   1.416       .  A
C855        S859   1.802       .  S
C856       C1155   1.416   1_545  A
C856        C857   1.402       .  A
C857        C858   1.395       .  A
C857        H864   1.084       .  S
C858        S860   1.802       .  S
S859        H862   1.407       .  S
S860        H861   1.407       .  S
C865       C1166   1.405       .  A
C865        C870   1.419       .  A
C866       C1165   1.405   1_545  A
C866        C867   1.400       .  A
C866        H875   1.084       .  S
C867       C1168   1.410   1_545  A
C867        S871   1.803       .  S
C868       C1167   1.410       .  A
C868        C869   1.397       .  A
C869        C870   1.393       .  A
C869        H876   1.084       .  S
C870        S872   1.800       .  S
S871        H874   1.406       .  S
S872        H873   1.403       .  S
C877        C878   1.399       .  A
C877        C882   1.414       .  A
C878        C879   1.393       .  A
C878        H887   1.084       .  S
C879        C880   1.422       .  A
C879        S883   1.803       .  S
C880        C881   1.406       .  A
C881        C882   1.402       .  A
C881        H888   1.084       .  S
C882        S884   1.801       .  S
S883        H886   1.403       .  S
S884        H885   1.407       .  S
C889        C890   1.405       .  A
C889        C894   1.411       .  A
C890        C891   1.398       .  A
C890        H899   1.085       .  S
C891        C892   1.414       .  A
C891        S895   1.802       .  S
C892        C893   1.409       .  A
C893        C894   1.396       .  A
C893        H900   1.084       .  S
C894        S896   1.805       .  S
S895        H898   1.408       .  S
S896        H897   1.407       .  S
C901        H902   1.112       .  S
C901        C907   1.535       .  S
C901        C906   1.533       .  S
C901        C905   1.535       .  S
C903        H904   1.112       .  S
C903        C909   1.533       .  S
C903        C908   1.535       .  S
C903        C910   1.533       .  S
C905        C908   1.404       .  D
C905        C941   1.505       .  S
C906        C909   1.401       .  D
C906        C949   1.499       .  S
C907        C910   1.404       .  D
C907        C925   1.504       .  S
C908        C935   1.504       .  S
C909        C955   1.498       .  S
C910        C929   1.503       .  S
C911        H912   1.112       .  S
C911        C917   1.532       .  S
C911        C916   1.535       .  S
C911        C915   1.533       .  S
C913        H914   1.112       .  S
C913        C919   1.533       .  S
C913        C918   1.533       .  S
C913        C920   1.536       .  S
C915        C918   1.399       .  D
C915        C947   1.494       .  S
C916        C919   1.401       .  D
C916        C923   1.499       .  S
C917        C920   1.404       .  D
C917        C943   1.506       .  S
C918        C953   1.501       .  S
C919        C931   1.502       .  S
C920        C937   1.500       .  S
C921        N922   1.364       .  A
C921        N926   1.367       .  A
C921       C1039   1.475       .  S
N922        C923   1.355       .  A
C923        N924   1.344       .  A
N924        C925   1.344       .  A
C925        N926   1.359       .  A
C927        N928   1.369       .  A
C927        N932   1.367       .  A
C927       C1027   1.478       .  S
N928        C929   1.360       .  A
C929        N930   1.340       .  A
N930        C931   1.340       .  A
C931        N932   1.356       .  A
C933        N938   1.364       .  A
C933       C1018   1.467       .  S
N934        C935   1.358       .  A
C935        N936   1.342       .  A
C937        N938   1.355       .  A
C939        N940   1.369       .  A
C939       C1006   1.485       .  S
N940        C941   1.356       .  A
C941        N942   1.340       .  A
C943        N944   1.361       .  A
C945        N946   1.363       .  A
C945        C991   1.472       .  S
N946        C947   1.355       .  A
C947        N948   1.343       .  A
C949        N950   1.357       .  A
C951        N952   1.366       .  A
C951        C979   1.470       .  S
N952        C953   1.356       .  A
C953        N954   1.343       .  A
C955        N956   1.357       .  A
O957        C972   1.253       .  A
O957      Al1115   1.865   1_565  S
C958       C1003   1.490       .  S
C958        O968   1.253       .  A
O959      Al1111   1.933   1_554  S
O960        C962   1.254       .  A
Al961      O1109   1.933       .  S
Al961       O969   1.868       .  S
C962       C1042   1.482       .  S
C962        O975   1.263       .  A
O964        C977   1.255       .  A
O964       Al974   1.867       .  S
Al965      O1107   1.865   1_544  S
Al965       O975   1.924   1_545  S
O966        C973   1.264       .  A
O966      Al1124   1.926   1_554  S
O967       Al974   1.927       .  S
O968      Al1124   1.868   1_554  S
O969        C976   1.254       .  A
O970       Al974   1.786       .  S
O971        C972   1.267       .  A
C972       C1030   1.486       .  S
C973        C994   1.481       .  S
Al974      O1116   1.926       .  S
Al974      O1118   1.868       .  S
C976       C1015   1.479       .  S
C977        C982   1.479       .  S
C979        C984   1.410       .  A
C980        C981   1.400       .  A
C980        H989   1.084       .  S
C981        S985   1.802       .  S
C982        C983   1.407       .  A
C983        C984   1.393       .  A
C983        H990   1.084       .  S
C984        S986   1.805       .  S
S985        H988   1.408       .  S
S986        H987   1.407       .  S
C991        C992   1.406       .  A
C992        C993   1.399       .  A
C992       H1001   1.082       .  S
C993        C994   1.414       .  A
C993        S997   1.802       .  S
C995        C996   1.393       .  A
C995       H1002   1.082       .  S
C996        S998   1.805       .  S
S997       H1000   1.407       .  S
S998        H999   1.407       .  S
C1003      C1008   1.421       .  A
C1004      C1005   1.403       .  A
C1004      H1013   1.084       .  S
C1005      S1009   1.802       .  S
C1006      C1007   1.402       .  A
C1007      C1008   1.395       .  A
C1007      H1014   1.084       .  S
C1008      S1010   1.802       .  S
S1009      H1012   1.407       .  S
S1010      H1011   1.407       .  S
C1015      C1020   1.419       .  A
C1016      C1017   1.400       .  A
C1016      H1025   1.084       .  S
C1017      S1021   1.803       .  S
C1018      C1019   1.397       .  A
C1019      C1020   1.393       .  A
C1019      H1026   1.084       .  S
C1020      S1022   1.800       .  S
S1021      H1024   1.406       .  S
S1022      H1023   1.403       .  S
C1027      C1028   1.399       .  A
C1027      C1032   1.414       .  A
C1028      C1029   1.394       .  A
C1028      H1037   1.084       .  S
C1029      C1030   1.422       .  A
C1029      S1033   1.804       .  S
C1030      C1031   1.406       .  A
C1031      C1032   1.402       .  A
C1031      H1038   1.083       .  S
C1032      S1034   1.801       .  S
S1033      H1036   1.403   1_565  S
S1034      H1035   1.407       .  S
C1039      C1040   1.405       .  A
C1039      C1044   1.411       .  A
C1040      C1041   1.399       .  A
C1040      H1049   1.085       .  S
C1041      C1042   1.414       .  A
C1041      S1045   1.802       .  S
C1042      C1043   1.409       .  A
C1043      C1044   1.396       .  A
C1043      H1050   1.084       .  S
C1044      S1046   1.805       .  S
S1045      H1048   1.408       .  S
S1046      H1047   1.407       .  S
C1051      H1052   1.112       .  S
C1051      C1057   1.535       .  S
C1051      C1056   1.533       .  S
C1051      C1055   1.535       .  S
C1053      H1054   1.112       .  S
C1053      C1059   1.533       .  S
C1053      C1058   1.535       .  S
C1053      C1060   1.533       .  S
C1055      C1058   1.404       .  D
C1055      C1091   1.505       .  S
C1056      C1059   1.401       .  D
C1056      C1099   1.499       .  S
C1057      C1060   1.404       .  D
C1057      C1075   1.504       .  S
C1058      C1085   1.504       .  S
C1059      C1105   1.498       .  S
C1060      C1079   1.503       .  S
C1061      H1062   1.112       .  S
C1061      C1067   1.532       .  S
C1061      C1066   1.535       .  S
C1061      C1065   1.533       .  S
C1063      H1064   1.112       .  S
C1063      C1069   1.533       .  S
C1063      C1068   1.533       .  S
C1063      C1070   1.536       .  S
C1065      C1068   1.399       .  D
C1065      C1097   1.494       .  S
C1066      C1069   1.401       .  D
C1066      C1073   1.499       .  S
C1067      C1070   1.404       .  D
C1067      C1093   1.506       .  S
C1068      C1103   1.501       .  S
C1069      C1081   1.502       .  S
C1070      C1087   1.500       .  S
C1071      N1072   1.364       .  A
C1071      N1076   1.367       .  A
C1071      C1189   1.475       .  S
N1072      C1073   1.355       .  A
C1073      N1074   1.344       .  A
N1074      C1075   1.344       .  A
C1075      N1076   1.359       .  A
C1077      N1078   1.369       .  A
C1077      N1082   1.367       .  A
C1077      C1177   1.478       .  S
N1078      C1079   1.360       .  A
C1079      N1080   1.340       .  A
N1080      C1081   1.340       .  A
C1081      N1082   1.356       .  A
C1083      N1088   1.364       .  A
C1083      C1168   1.467       .  S
N1084      C1085   1.358       .  A
C1085      N1086   1.342       .  A
C1087      N1088   1.355       .  A
C1089      N1090   1.369       .  A
C1089      C1156   1.485       .  S
N1090      C1091   1.356       .  A
C1091      N1092   1.340       .  A
C1093      N1094   1.361       .  A
C1095      N1096   1.363       .  A
C1095      C1141   1.472       .  S
N1096      C1097   1.355       .  A
C1097      N1098   1.343       .  A
C1099      N1100   1.357       .  A
C1101      N1102   1.366       .  A
C1101      C1129   1.470       .  S
N1102      C1103   1.356       .  A
C1103      N1104   1.343       .  A
C1105      N1106   1.357       .  A
O1107      C1122   1.253       .  A
C1108      C1153   1.490       .  S
C1108      O1118   1.253       .  A
O1110      C1112   1.254       .  A
Al1111     O1119   1.868       .  S
C1112      C1192   1.482       .  S
C1112      O1125   1.263       .  A
O1114      C1127   1.255       .  A
O1114     Al1124   1.867       .  S
Al1115     O1125   1.924   1_545  S
O1116      C1123   1.264       .  A
O1117     Al1124   1.927       .  S
O1119      C1126   1.254       .  A
O1120     Al1124   1.786       .  S
O1121      C1122   1.267       .  A
C1122      C1180   1.486       .  S
C1123      C1144   1.481       .  S
C1126      C1165   1.479       .  S
C1127      C1132   1.479       .  S
C1129      C1134   1.410       .  A
C1130      C1131   1.400       .  A
C1130      H1139   1.084       .  S
C1131      S1135   1.802       .  S
C1132      C1133   1.407       .  A
C1133      C1134   1.393       .  A
C1133      H1140   1.084       .  S
C1134      S1136   1.805       .  S
S1135      H1138   1.408       .  S
S1136      H1137   1.407       .  S
C1141      C1142   1.406       .  A
C1142      C1143   1.399       .  A
C1142      H1151   1.082       .  S
C1143      C1144   1.414       .  A
C1143      S1147   1.802       .  S
C1145      C1146   1.393       .  A
C1145      H1152   1.082       .  S
C1146      S1148   1.805       .  S
S1147      H1150   1.407       .  S
S1148      H1149   1.407       .  S
C1153      C1158   1.421       .  A
C1154      C1155   1.403       .  A
C1154      H1163   1.084       .  S
C1155      S1159   1.802       .  S
C1156      C1157   1.402       .  A
C1157      C1158   1.395       .  A
C1157      H1164   1.084       .  S
C1158      S1160   1.802       .  S
S1159      H1162   1.407       .  S
S1160      H1161   1.407       .  S
C1165      C1170   1.419       .  A
C1166      C1167   1.400       .  A
C1166      H1175   1.084       .  S
C1167      S1171   1.803       .  S
C1168      C1169   1.397       .  A
C1169      C1170   1.393       .  A
C1169      H1176   1.084       .  S
C1170      S1172   1.800       .  S
S1171      H1174   1.406       .  S
S1172      H1173   1.403       .  S
C1177      C1178   1.399       .  A
C1177      C1182   1.414       .  A
C1178      C1179   1.394       .  A
C1178      H1187   1.084       .  S
C1179      C1180   1.422       .  A
C1179      S1183   1.804       .  S
C1180      C1181   1.406       .  A
C1181      C1182   1.402       .  A
C1181      H1188   1.083       .  S
C1182      S1184   1.801       .  S
S1183      H1186   1.403   1_565  S
S1184      H1185   1.407       .  S
C1189      C1190   1.405       .  A
C1189      C1194   1.411       .  A
C1190      C1191   1.399       .  A
C1190      H1199   1.085       .  S
C1191      C1192   1.414       .  A
C1191      S1195   1.802       .  S
C1192      C1193   1.409       .  A
C1193      C1194   1.396       .  A
C1193      H1200   1.084       .  S
C1194      S1196   1.805       .  S
S1195      H1198   1.408       .  S
S1196      H1197   1.407       .  S
