geometry optimzed in LAMMPS
_audit_creation_date              2020-11-30 
_audit_creation_method            'lammps2cif' 
_symmetry_space_group_name_H-M    'P1' 
_symmetry_Int_Tables_number       1 
_symmetry_cell_setting            triclinic 
loop_ 
_symmetry_equiv_pos_as_xyz 
  x,y,z 
_cell_length_a                    37.24506173240459 
_cell_length_b                    37.36351988763867 
_cell_length_c                    23.69722071095667 
_cell_angle_alpha                 90.26563038077101 
_cell_angle_beta                  89.81075788556196 
_cell_angle_gamma                 120.06424682650767 
loop_ 
_atom_site_label 
_atom_site_type_symbol 
_atom_site_fract_x 
_atom_site_fract_y 
_atom_site_fract_z 
_atom_site_charge 
C1          C  0.77415006  0.51374147  0.50192707     0.00230
C2          C  0.73586824  0.51165048  0.00694046     0.00230
C3          C  0.47230656  0.20269265  0.00143287     0.00230
C4          C  0.47439188  0.24073353  0.00487195     0.00230
C5          C  0.72834810  0.20841050  0.01305449     0.00230
C6          C  0.76289674  0.24580890  0.49713328     0.00230
C7          C  0.50918466  0.75819207  0.99698508     0.00230
C8          C  0.50930310  0.72099633  0.99938436     0.00230
C9          C  0.20731698  0.45636239  0.49791198     0.00230
C10         C  0.24469874  0.45702563  0.00134823     0.00230
C11         C  0.25008012  0.75781709  0.00203198     0.00230
C12         C  0.21349205  0.71996684  0.49900830     0.00230
O13         O  0.91887338  0.37446708  0.36732974    -0.75630
O14         O  0.87152238  0.38350486  0.31807964    -0.54540
C15         C  0.88120669  0.36450543  0.35470102     0.78100
O16         O  0.06540194  0.58810006  0.35553194    -0.60230
O17         O  0.11156195  0.58023007  0.30184555    -0.53260
C18         C  0.10260751  0.59982321  0.33889111     0.70110
O19         O  0.92683894  0.52473338  0.36523477    -0.74790
O20         O  0.87519564  0.46648598  0.32574035    -0.55350
C21         C  0.88826120  0.49834428  0.35827568     0.76120
O22         O  0.06021401  0.44538495  0.36445300    -0.59930
O23         O  0.10802093  0.49836229  0.30971631    -0.53050
C24         C  0.09777366  0.47166911  0.34959554     0.72710
Zr25       Zr  0.98938466  0.42699372  0.33631421     2.54710
O26         O  0.98927486  0.42916786  0.43875851    -0.80500
O27         O  0.99242051  0.36351422  0.33093660    -0.93920
Zr28       Zr  0.99393032  0.53507070  0.33648797     2.64680
O29         O  0.99885876  0.53370415  0.43879102    -0.98870
O30         O  0.99213007  0.59920947  0.33880350    -0.80930
O31         O  0.95103588  0.46218777  0.34080533    -0.84290
O32         O  0.03205277  0.50007852  0.33433104    -2.19000
O33         O  0.05014243  0.43624908  0.13751222    -0.67680
O34         O  0.10246184  0.49360347  0.17840205    -0.52240
C35         C  0.08879039  0.46252614  0.14398061     0.71090
O36         O  0.91911434  0.51664288  0.14191482    -0.60590
O37         O  0.87051161  0.46303589  0.19489411    -0.52560
C38         C  0.88147790  0.49054260  0.15589954     0.72890
O39         O  0.05860023  0.58918547  0.14355299    -0.71980
O40         O  0.10654148  0.57909351  0.18970299    -0.50660
C41         C  0.09615667  0.59882291  0.15518028     0.74280
O42         O  0.91279569  0.37461143  0.14616400    -0.67310
O43         O  0.86656104  0.38253591  0.19993664    -0.54510
C44         C  0.87559371  0.36390703  0.16144606     0.72660
Zr45       Zr  0.98380344  0.42629331  0.16874399     2.77540
O46         O  0.97581285  0.43323634  0.06830484    -0.98060
O47         O  0.98295846  0.36108251  0.15857056    -0.78880
Zr48       Zr  0.98901738  0.53428632  0.16987738     2.70070
O49         O  0.99040754  0.53190945  0.06731348    -0.80130
O50         O  0.98599532  0.59785723  0.17301277    -0.99210
Zr51       Zr  0.90900883  0.44307622  0.25817039     2.21500
Zr52       Zr  0.06920282  0.51778609  0.24703490     2.11130
O53         O  0.02719288  0.49908547  0.16455212    -2.47900
O54         O  0.94584276  0.46132215  0.17117582    -0.79920
O55         O  0.02677067  0.44442668  0.24973516    -0.72120
O56         O  0.95111769  0.51647977  0.25556158    -2.33070
O57         O  0.94670689  0.40693995  0.25490253    -2.29280
O58         O  0.03168524  0.55394278  0.25091406    -0.73880
H59         H  0.05096517  0.50946537  0.36587595     0.78120
H60         H  0.93416897  0.52932680  0.25655431     0.79210
H61         H  0.04398479  0.50712427  0.13075971     0.81430
H62         H  0.92834945  0.37734604  0.25522300     0.79040
H63         H  0.98184122  0.60106713  0.30109309     0.42080
H64         H  0.00888401  0.61637301  0.19854240     0.41050
H65         H  0.96588828  0.50505996  0.05707837     0.40720
H66         H  0.00374443  0.45420834  0.05499204     0.38660
H67         H  0.99260117  0.35691703  0.19554367     0.41790
H68         H  0.97086156  0.34610302  0.30309074     0.36570
H69         H  0.97291737  0.44265617  0.44813363     0.42690
H70         H  0.02011712  0.52578978  0.44602637     0.39110
H71         H  0.97079959  0.40676943  0.05170012     0.44030
H72         H  0.98138827  0.34979307  0.36766941     0.42750
H73         H  0.01227209  0.56312117  0.45034405     0.42880
H74         H  0.99527219  0.61014560  0.13509221     0.43240
O75         O  0.45625408  0.37303622  0.14402136    -0.75630
O76         O  0.50900563  0.37952477  0.19931879    -0.54540
C77         C  0.48123980  0.36086077  0.16094598     0.78100
O78         O  0.52915793  0.58746515  0.14989385    -0.60230
O79         O  0.46608728  0.57370439  0.18156883    -0.53260
C80         C  0.49978888  0.59589751  0.15335207     0.70110
O81         O  0.60060891  0.51954721  0.15426279    -0.74790
O82         O  0.59336793  0.46352883  0.20126080    -0.55350
C83         C  0.61380000  0.49485608  0.16869103     0.76120
O84         O  0.38424989  0.44045408  0.13380675    -0.59930
O85         O  0.38385386  0.48866440  0.19161579    -0.53050
C86         C  0.36861340  0.46260277  0.15079266     0.72710
Zr87       Zr  0.43677671  0.42455999  0.16874760     2.54710
O88         O  0.43330217  0.41606303  0.06675817    -0.80500
O89         O  0.37043874  0.36281323  0.18712941    -0.93920
Zr90       Zr  0.54195912  0.53104983  0.16983028     2.64680
O91         O  0.53450296  0.51804862  0.06872550    -0.98870
O92         O  0.60355692  0.59797244  0.15451527    -0.80930
O93         O  0.51061105  0.45825892  0.16926511    -0.84290
O94         O  0.46854332  0.49752308  0.16508217    -2.19000
O95         O  0.37904960  0.43867804  0.36051674    -0.67710
O96         O  0.38819072  0.49613833  0.31389320    -0.52240
C97         C  0.36923113  0.46623673  0.34935813     0.71090
O98         O  0.59342897  0.52036638  0.36936424    -0.60590
O99         O  0.59016362  0.46718930  0.31809601    -0.52560
C100        C  0.60693691  0.49567566  0.35586413     0.72890
O101        O  0.52113442  0.58871082  0.35471429    -0.71980
O102        O  0.46522939  0.57843998  0.30278603    -0.50660
C103        C  0.49412790  0.59868815  0.33888347     0.74280
O104        O  0.45091125  0.37356666  0.36544546    -0.67310
O105        O  0.51057123  0.38485482  0.32197127    -0.54510
C106        C  0.47989371  0.36516291  0.35606496     0.72660
Zr107      Zr  0.43485090  0.42612616  0.33550547     2.77540
O108        O  0.43674457  0.43003359  0.43806936    -0.98060
O109        O  0.37077417  0.35964290  0.33311321    -0.78880
Zr110      Zr  0.53903861  0.53443960  0.33711205     2.70070
O111        O  0.53236651  0.53397376  0.43920198    -0.80130
O112        O  0.60382596  0.60014329  0.33547388    -0.99210
Zr113      Zr  0.53038177  0.44144602  0.25642932     2.21500
Zr114      Zr  0.44614687  0.51680240  0.24838525     2.11130
O115        O  0.46563066  0.49929743  0.33541861    -2.47900
O116        O  0.50837557  0.46117935  0.33970498    -0.79920
O117        O  0.41389739  0.44366374  0.25054413    -0.72120
O118        O  0.56232417  0.51497559  0.25580579    -2.33070
O119        O  0.45652535  0.40579877  0.25368867    -2.29280
O120        O  0.51991181  0.55197221  0.25105651    -0.73880
H121        H  0.46003005  0.50587217  0.13152601     0.78120
H122        H  0.59218916  0.52829538  0.25746275     0.79210
H123        H  0.45586972  0.50828898  0.36725054     0.81430
H124        H  0.44523528  0.37623605  0.25457272     0.79040
H125        H  0.61078391  0.61083434  0.19247298     0.42080
H126        H  0.60122458  0.61499921  0.30268474     0.41050
H127        H  0.52184249  0.50476864  0.44975579     0.40720
H128        H  0.43738929  0.45622762  0.44723764     0.38660
H129        H  0.35279351  0.36347260  0.30604301     0.41790
H130        H  0.37686441  0.34523169  0.21128823     0.36570
H131        H  0.46239955  0.43328013  0.05402441     0.42690
H132        H  0.51565139  0.52794778  0.05626211     0.39110
H133        H  0.40879178  0.40811312  0.45000074     0.44030
H134        H  0.36228883  0.34834596  0.15036925     0.42750
H135        H  0.56192748  0.53817998  0.05289405     0.42880
H136        H  0.60257434  0.61549576  0.36888284     0.43240
O137        O  0.59985570  0.05571429  0.14282309    -0.75630
O138        O  0.59161732  0.10058208  0.19920300    -0.54540
C139        C  0.61054629  0.09264553  0.16003630     0.78100
O140        O  0.37978895  0.91421719  0.15224114    -0.60230
O141        O  0.39277603  0.86500416  0.18415437    -0.53260
C142        C  0.37020339  0.87633340  0.15701582     0.70110
O143        O  0.45658010  0.05147711  0.14005827    -0.74790
O144        O  0.51181570  0.09922159  0.19155087    -0.55350
C145        C  0.48360627  0.08873221  0.15366858     0.76120
O146        O  0.53237922  0.91456351  0.13896422    -0.59930
O147        O  0.47542429  0.86544342  0.18626652    -0.53050
C148        C  0.50513845  0.87670858  0.15050598     0.72710
Zr149      Zr  0.54720642  0.98408715  0.16790461     2.54710
O150        O  0.54692711  0.98629921  0.06535198    -0.80500
O151        O  0.61103015  0.98137117  0.17205970    -0.93920
Zr152      Zr  0.43981479  0.98214654  0.16685884     2.64680
O153        O  0.44515098  0.97723532  0.06510676    -0.98870
O154        O  0.37849421  0.98899255  0.15721774    -0.80930
O155        O  0.51312918  0.02344608  0.16847393    -0.84290
O156        O  0.47359899  0.94270710  0.16334212    -2.19000
O157        O  0.52769083  0.91032044  0.35827077    -0.67680
O158        O  0.47721703  0.86369110  0.30098203    -0.52240
C159        C  0.50452985  0.87319101  0.33979372     0.71090
O160        O  0.44763855  0.04709034  0.35759874    -0.60590
O161        O  0.50458138  0.09694647  0.31345211    -0.52560
C162        C  0.47283241  0.08527473  0.34578608     0.72890
O163        O  0.38362387  0.90725817  0.35880596    -0.71980
O164        O  0.39429345  0.86075859  0.30916950    -0.50660
C165        C  0.37484371  0.87021884  0.34586603     0.74280
O166        O  0.59161161  0.04943289  0.37213338    -0.67310
O167        O  0.58780952  0.09831431  0.31968175    -0.54510
C168        C  0.60364201  0.08730470  0.35945066     0.72660
Zr169      Zr  0.54310741  0.98039010  0.33581633     2.77540
O170        O  0.54237158  0.97559048  0.43825026    -0.98060
O171        O  0.61039581  0.98511785  0.32703070    -0.78880
Zr172      Zr  0.43550471  0.97817621  0.33370036     2.70070
O173        O  0.43670483  0.97898855  0.43625455    -0.80130
O174        O  0.36797916  0.97351564  0.32909592    -0.99210
Zr175      Zr  0.53009449  0.06039334  0.25551182     2.21500
Zr176      Zr  0.45240196  0.90189719  0.24700323     2.11130
O177        O  0.46979288  0.93911177  0.33412391    -2.47900
O178        O  0.50889527  0.01954218  0.33890887    -0.79920
O179        O  0.52592040  0.94256424  0.25009990    -0.72120
O180        O  0.45644761  0.01999497  0.25194372    -2.33070
O181        O  0.56552094  0.02210749  0.25398149    -2.29280
O182        O  0.41717513  0.94011569  0.24832076    -0.73880
H183        H  0.46517443  0.92541707  0.13001667     0.78120
H184        H  0.44385317  0.03714363  0.25122067     0.79210
H185        H  0.46068398  0.92052178  0.36593370     0.81430
H186        H  0.59521219  0.04025540  0.25568300     0.79040
H187        H  0.36981042  0.98982231  0.19650834     0.42080
H188        H  0.35278714  0.95273780  0.29925703     0.41050
H189        H  0.46648101  0.99188672  0.44598164     0.40720
H190        H  0.51497691  0.95148438  0.44755867     0.38660
H191        H  0.60764960  0.96795870  0.29358720     0.41790
H192        H  0.62882866  0.00338283  0.19911606     0.36570
H193        H  0.53435398  0.00349793  0.05641681     0.42690
H194        H  0.42996743  0.94723284  0.05664268     0.39110
H195        H  0.56253879  0.96647390  0.44693606     0.44030
H196        H  0.62424673  0.99153020  0.13478326     0.42750
H197        H  0.42735342  0.98755315  0.04971116     0.42880
H198        H  0.35383317  0.95974053  0.36461956     0.43240
C199        C  0.31943845  0.78677501  0.45457156    -0.02180
C200        C  0.27795473  0.77858824  0.45105220     0.07500
C201        C  0.26787314  0.79657292  0.40501480    -0.02300
C202        C  0.29951683  0.82509152  0.36877720    -0.02300
C203        C  0.34105394  0.83624100  0.37792635     0.07630
C204        C  0.35082853  0.81634798  0.41992217    -0.02500
Br205      Br  0.40808153  0.83221190  0.43268076    -0.01040
Br206      Br  0.33316320  0.75492717  0.00394387    -0.01120
Br207      Br  0.28676173  0.85021333  0.30662733    -0.01080
Br208      Br  0.21262552  0.78551695  0.38976563    -0.01060
C209        C  0.31231167  0.85570749  0.08456208    -0.02180
C210        C  0.33140627  0.84434695  0.12740406     0.07500
C211        C  0.31311650  0.80172805  0.14034597    -0.02300
C212        C  0.28381931  0.77131465  0.10315602    -0.02300
C213        C  0.26821436  0.78316621  0.05608557     0.07630
C214        C  0.27868349  0.82511417  0.05371350    -0.02500
Br215      Br  0.24592704  0.84134931  0.50915333    -0.01040
Br216      Br  0.33205737  0.91244840  0.06198141    -0.01120
Br217      Br  0.26971962  0.71523975  0.11810686    -0.01080
Br218      Br  0.32666719  0.78412615  0.21010201    -0.01060
C219        C  0.17786609  0.64630649  0.37129968    -0.02180
C220        C  0.13656028  0.63816983  0.36611820     0.07500
C221        C  0.12661926  0.66640357  0.39124115    -0.02300
C222        C  0.15193000  0.69344153  0.43367914    -0.02300
C223        C  0.19209510  0.69937398  0.44379171     0.07630
C224        C  0.20639524  0.67914137  0.40626946    -0.02500
Br225      Br  0.26397353  0.69464170  0.39976225    -0.01040
Br226      Br  0.19623356  0.61235586  0.33303854    -0.01120
Br227      Br  0.13051357  0.72319658  0.47535412    -0.01080
Br228      Br  0.08041540  0.67142913  0.36418188    -0.01060
C229        C  0.18551114  0.65387234  0.05393500    -0.02180
C230        C  0.19031990  0.69396312  0.05001217     0.07500
C231        C  0.16786658  0.70442337  0.08929678    -0.02300
C232        C  0.13701126  0.67347373  0.12417613    -0.02300
C233        C  0.13004717  0.63283532  0.12281999     0.07630
C234        C  0.15572237  0.62384518  0.08969013    -0.02500
Br235      Br  0.14858448  0.56910822  0.09165011    -0.01040
Br236      Br  0.22327252  0.64070825  0.01636634    -0.01120
Br237      Br  0.10448406  0.68648882  0.17493379    -0.01080
Br238      Br  0.17842536  0.76009256  0.09855811    -0.01060
C239        C  0.26254640  0.42992981  0.41252859    -0.02180
C240        C  0.27173911  0.46287275  0.45098440     0.07500
C241        C  0.31244887  0.49693709  0.45133843    -0.02300
C242        C  0.34446107  0.49439148  0.42458970    -0.02300
C243        C  0.33509247  0.46459509  0.38269103     0.07630
C244        C  0.29376176  0.43263397  0.37556668    -0.02500
Br245      Br  0.28063694  0.39216641  0.31664359    -0.01040
Br246      Br  0.20716354  0.38309418  0.40527338    -0.01120
Br247      Br  0.39960805  0.52428977  0.45604248    -0.01080
Br248      Br  0.32405431  0.54965114  0.97933934    -0.01060
C249        C  0.26883527  0.41818329  0.06236532    -0.02180
C250        C  0.26411919  0.45301152  0.05517484     0.07500
C251        C  0.28833233  0.48797459  0.08990758    -0.02300
C252        C  0.32192297  0.49116111  0.12142877    -0.02300
C253        C  0.33081637  0.45826912  0.12124778     0.07630
C254        C  0.30211278  0.42075436  0.09394787    -0.02500
Br255      Br  0.30616964  0.37139473  0.09980105    -0.01040
Br256      Br  0.22605667  0.36522354  0.53546777    -0.01120
Br257      Br  0.35612690  0.54271201  0.16155227    -0.01080
Br258      Br  0.27421651  0.53071862  0.09966036    -0.01060
C259        C  0.14942317  0.50134428  0.42776159    -0.02180
C260        C  0.13204235  0.47312327  0.38274300     0.07500
C261        C  0.15141976  0.45085819  0.36552568    -0.02300
C262        C  0.18792981  0.45769047  0.39264422    -0.02300
C263        C  0.19692599  0.47536397  0.44740421     0.07630
C264        C  0.18196295  0.50249964  0.45949939    -0.02500
Br265      Br  0.20823491  0.54222918  0.01775872    -0.01040
Br266      Br  0.12716081  0.53649973  0.44740956    -0.01120
Br267      Br  0.23310426  0.47954176  0.33955755    -0.01080
Br268      Br  0.13120584  0.41424512  0.30146729    -0.01060
C269        C  0.10556179  0.43101158  0.05896960    -0.02180
C270        C  0.11867322  0.45513119  0.10960601     0.07500
C271        C  0.15879099  0.46674781  0.13014263    -0.02300
C272        C  0.18344231  0.45343923  0.10195952    -0.02300
C273        C  0.17468042  0.43989690  0.04532432     0.07630
C274        C  0.13283736  0.42173050  0.02939736    -0.02500
Br275      Br  0.11270413  0.38148519  0.46921907    -0.01040
Br276      Br  0.05282474  0.41406520  0.02361104    -0.01120
Br277      Br  0.20028163  0.42387619  0.15166455    -0.01080
Br278      Br  0.18041501  0.49703387  0.19970718    -0.01060
C279        C  0.53244884  0.67338717  0.36951222    -0.02180
C280        C  0.49555290  0.63501852  0.36668235     0.07500
C281        C  0.46075731  0.63032715  0.39589724    -0.02300
C282        C  0.46625702  0.65649834  0.44162381    -0.02300
C283        C  0.50350085  0.69513066  0.44695121     0.07630
C284        C  0.53508227  0.70481990  0.40576602    -0.02500
Br285      Br  0.58200232  0.75937840  0.39652214    -0.01040
Br286      Br  0.57787650  0.68354820  0.32014153    -0.01120
Br287      Br  0.42061757  0.63976861  0.99323457    -0.01080
Br288      Br  0.40591726  0.59521923  0.36581907    -0.01060
C289        C  0.48383288  0.65410716  0.13550619    -0.02180
C290        C  0.50583457  0.63340393  0.12147458     0.07500
C291        C  0.53520258  0.65015858  0.07694188    -0.02300
C292        C  0.54261741  0.68648637  0.04989537    -0.02300
C293        C  0.51348475  0.70018416  0.05274697     0.07630
C294        C  0.48475940  0.68461276  0.09881312    -0.02500
Br295      Br  0.44440222  0.70105548  0.11365159    -0.01040
Br296      Br  0.45359754  0.64249864  0.20600621    -0.01120
Br297      Br  0.59547958  0.71905388  0.51333813    -0.01080
Br298      Br  0.56327881  0.62284152  0.04530641    -0.01060
C299        C  0.47702730  0.79751642  0.36656503    -0.02180
C300        C  0.50927173  0.83942923  0.36681003     0.07500
C301        C  0.54615070  0.84939275  0.39598918    -0.02300
C302        C  0.54691488  0.82167440  0.43528965    -0.02300
C303        C  0.51233884  0.78117514  0.44206251     0.07630
C304        C  0.47924184  0.76835329  0.40229509    -0.02500
Br305      Br  0.43508863  0.71209346  0.39407489    -0.01040
Br306      Br  0.42857813  0.77860254  0.31835506    -0.01120
Br307      Br  0.59704629  0.84073825  0.47871664    -0.01080
Br308      Br  0.59745131  0.89982125  0.37939614    -0.01060
C309        C  0.53804567  0.83441422  0.12154300    -0.02180
C310        C  0.50553307  0.84322382  0.11738882     0.07500
C311        C  0.47114352  0.81812606  0.08342752    -0.02300
C312        C  0.47087247  0.78703520  0.04984215    -0.02300
C313        C  0.50538687  0.78078439  0.04806592     0.07630
C314        C  0.53759434  0.80253233  0.08820857    -0.02500
Br315      Br  0.58065074  0.78918350  0.10031081    -0.01040
Br316      Br  0.58271285  0.86585620  0.17377577    -0.01120
Br317      Br  0.42030747  0.74944422  0.01207830    -0.01080
Br318      Br  0.42453401  0.82739744  0.08135434    -0.01060
C319        C  0.82454750  0.27227415  0.06285582    -0.02180
C320        C  0.79077922  0.27544673  0.04179134     0.07500
C321        C  0.78435534  0.30731543  0.06342480    -0.02300
C322        C  0.80719193  0.33117468  0.11019709    -0.02300
C323        C  0.84176702  0.32890245  0.12944528     0.07630
C324        C  0.84853429  0.29748087  0.10783761    -0.02500
Br325      Br  0.88883747  0.28646618  0.14279003    -0.01040
Br326      Br  0.84347687  0.23880969  0.02539830    -0.01120
Br327      Br  0.78897409  0.36511235  0.14876885    -0.01080
Br328      Br  0.74921466  0.32398582  0.02583944    -0.01060
C329        C  0.80859420  0.25553860  0.41153497    -0.02180
C330        C  0.77618797  0.25984738  0.43597034     0.07500
C331        C  0.77413434  0.29441835  0.41683325    -0.02300
C332        C  0.80977736  0.32998482  0.39755063    -0.02300
C333        C  0.84576342  0.32841579  0.38324677     0.07630
C334        C  0.84374665  0.28975146  0.38694013    -0.02500
Br335      Br  0.88692082  0.28215993  0.35402965    -0.01040
Br336      Br  0.79917728  0.20142028  0.39474634    -0.01120
Br337      Br  0.80751984  0.38014812  0.39076340    -0.01080
Br338      Br  0.72239477  0.28693973  0.38972586    -0.01060
C339        C  0.67171152  0.11618652  0.41094825    -0.02180
C340        C  0.63765760  0.12027969  0.39405456     0.07500
C341        C  0.63479238  0.15437356  0.41410702    -0.02300
C342        C  0.66486587  0.18320684  0.45150494    -0.02300
C343        C  0.69867377  0.17892744  0.46944624     0.07630
C344        C  0.70047621  0.14368897  0.45077750    -0.02500
Br345      Br  0.73849139  0.12863406  0.48285859    -0.01040
Br346      Br  0.68077562  0.07414252  0.37717746    -0.01120
Br347      Br  0.65631487  0.22569684  0.48317670    -0.01080
Br348      Br  0.58834336  0.16076528  0.39328938    -0.01060
C349        C  0.68299352  0.20022399  0.09900850    -0.02180
C350        C  0.71495291  0.19518682  0.07453378     0.07500
C351        C  0.71837634  0.16200696  0.09653050    -0.02300
C352        C  0.68407609  0.12778303  0.12200144    -0.02300
C353        C  0.64733565  0.12882729  0.13341613     0.07630
C354        C  0.64862351  0.16707178  0.12587057    -0.02500
Br355      Br  0.60513651  0.17664910  0.15393326    -0.01040
Br356      Br  0.69288405  0.25431605  0.11735799    -0.01120
Br357      Br  0.69017996  0.08202216  0.14658315    -0.01080
Br358      Br  0.77252623  0.17002700  0.11104055    -0.01060
C359        C  0.44959572  0.28980187  0.37809079    -0.02180
C360        C  0.47895191  0.33146805  0.38889618     0.07500
C361        C  0.50851409  0.34148824  0.43105322    -0.02300
C362        C  0.51161903  0.31019850  0.45837062    -0.02300
C363        C  0.47888922  0.26833697  0.45520138     0.07630
C364        C  0.44814580  0.25819348  0.41255251    -0.02500
Br365      Br  0.40320319  0.20285098  0.39932782    -0.01040
Br366      Br  0.41031307  0.27683348  0.31749201    -0.01120
Br367      Br  0.56444501  0.32589156  0.49203709    -0.01080
Br368      Br  0.54097493  0.39789910  0.45750577    -0.01060
C369        C  0.51029950  0.31465597  0.12921198    -0.02180
C370        C  0.47698756  0.32264071  0.13347486     0.07500
C371        C  0.43881514  0.29374533  0.10866931    -0.02300
C372        C  0.43730459  0.26550509  0.06831543    -0.02300
C373        C  0.47176641  0.25978653  0.05996765     0.07630
C374        C  0.50604073  0.28084345  0.09693116    -0.02500
Br375      Br  0.54827752  0.26563981  0.10394698    -0.01040
Br376      Br  0.56344833  0.35101133  0.16245451    -0.01120
Br377      Br  0.38659120  0.23391780  0.02612581    -0.01080
Br378      Br  0.38730502  0.28938351  0.13281068    -0.01060
C379        C  0.49211683  0.16055930  0.36261803    -0.02180
C380        C  0.46537893  0.11770127  0.37292775     0.07500
C381        C  0.43206968  0.10665528  0.41127371    -0.02300
C382        C  0.43184079  0.13677832  0.44688173    -0.02300
C383        C  0.46531786  0.17805566  0.44713645     0.07630
C384        C  0.49368551  0.19049599  0.40101991    -0.02500
Br385      Br  0.53728252  0.24688961  0.38979849    -0.01040
Br386      Br  0.52444093  0.17953890  0.29364955    -0.01120
Br387      Br  0.38407077  0.12121887  0.49447881    -0.01080
Br388      Br  0.38452086  0.05120825  0.41502660    -0.01060
C389        C  0.45567705  0.13604791  0.13527552    -0.02180
C390        C  0.48304961  0.12179739  0.12133007     0.07500
C391        C  0.50936265  0.13822567  0.07488760    -0.02300
C392        C  0.51037544  0.17080673  0.04504178    -0.02300
C393        C  0.47896044  0.18127621  0.05168486     0.07630
C394        C  0.45195087  0.16423266  0.09934496    -0.02500
Br395      Br  0.40827456  0.17553409  0.11724593    -0.01040
Br396      Br  0.42167284  0.11445354  0.20214264    -0.01120
Br397      Br  0.55827626  0.20430704  0.50040487    -0.01080
Br398      Br  0.54084465  0.11321341  0.04792101    -0.01060
C399        C  0.64733309  0.46488669  0.40011775    -0.02180
C400        C  0.64412300  0.50007120  0.38639588     0.07500
C401        C  0.67794834  0.53958419  0.40056392    -0.02300
C402        C  0.71232724  0.54300163  0.43022210    -0.02300
C403        C  0.70934359  0.50794232  0.45708823     0.07630
C404        C  0.67716585  0.46850117  0.43965301    -0.02500
Br405      Br  0.67783342  0.41928867  0.46067642    -0.01040
Br406      Br  0.61521579  0.41245482  0.36114688    -0.01120
Br407      Br  0.76620549  0.59137268  0.91770769    -0.01080
Br408      Br  0.68014174  0.58971751  0.37590374    -0.01060
C409        C  0.69572026  0.47612089  0.09920613    -0.02180
C410        C  0.71491244  0.51109018  0.06269180     0.07500
C411        C  0.70955262  0.54530396  0.07696887    -0.02300
C412        C  0.68082977  0.54160811  0.11842047    -0.02300
C413        C  0.65450570  0.50320342  0.14358231     0.07630
C414        C  0.66726729  0.47348440  0.14124372    -0.02500
Br415      Br  0.65389436  0.43537508  0.20287873    -0.01040
Br416      Br  0.70690762  0.43120282  0.09504992    -0.01120
Br417      Br  0.68293572  0.59091541  0.14840261    -0.01080
Br418      Br  0.74307330  0.59953343  0.04525385    -0.01060
C419        C  0.81026345  0.52768433  0.10091312    -0.02180
C420        C  0.79369584  0.50306780  0.05113606     0.07500
C421        C  0.80308318  0.47100542  0.04183579    -0.02300
C422        C  0.83287720  0.46811590  0.07457916    -0.02300
C423        C  0.84868753  0.49228755  0.12333242     0.07630
C424        C  0.83622317  0.52094260  0.13762448    -0.02500
Br425      Br  0.85824197  0.55346919  0.20571938    -0.01040
Br426      Br  0.80292760  0.57365724  0.11889774    -0.01120
Br427      Br  0.85601880  0.43481864  0.04845170    -0.01080
Br428      Br  0.77440137  0.42941342  0.98518553    -0.01060
C429        C  0.87071604  0.53573098  0.43384694    -0.02180
C430        C  0.85756785  0.50680212  0.38856734     0.07500
C431        C  0.81646345  0.49098226  0.36834639    -0.02300
C432        C  0.78865178  0.50082181  0.39625633    -0.02300
C433        C  0.80063078  0.52461576  0.44734594     0.07630
C434        C  0.84376175  0.54811439  0.45667250    -0.02500
Br435      Br  0.86596609  0.59750211  0.00208203    -0.01040
Br436      Br  0.92291811  0.55503601  0.47270541    -0.01120
Br437      Br  0.74655818  0.49875792  0.34725895    -0.01080
Br438      Br  0.79712828  0.45695847  0.30058849    -0.01060
C439        C  0.77415005  0.51374146  0.00192706     0.00230
C440        C  0.73586825  0.51165048  0.50694046     0.00230
C441        C  0.47230655  0.20269264  0.50143287     0.00230
C442        C  0.47439188  0.24073353  0.50487195     0.00230
C443        C  0.72834809  0.20841051  0.51305448     0.00230
C444        C  0.76289675  0.24580890  0.99713329     0.00230
C445        C  0.50918466  0.75819207  0.49698508     0.00230
C446        C  0.50930310  0.72099633  0.49938436     0.00230
C447        C  0.20731697  0.45636238  0.99791197     0.00230
C448        C  0.24469874  0.45702564  0.50134824     0.00230
C449        C  0.25008012  0.75781709  0.50203199     0.00230
C450        C  0.21349205  0.71996684  0.99900829     0.00230
O451        O  0.91887338  0.37446707  0.86732973    -0.75630
O452        O  0.87152238  0.38350485  0.81807964    -0.54540
C453        C  0.88120669  0.36450542  0.85470102     0.78100
O454        O  0.06540194  0.58810006  0.85553194    -0.60230
O455        O  0.11156195  0.58023007  0.80184555    -0.53260
C456        C  0.10260750  0.59982321  0.83889111     0.70110
O457        O  0.92683894  0.52473337  0.86523477    -0.74790
O458        O  0.87519563  0.46648597  0.82574036    -0.55350
C459        C  0.88826120  0.49834427  0.85827569     0.76120
O460        O  0.06021400  0.44538493  0.86445297    -0.59930
O461        O  0.10802093  0.49836229  0.80971630    -0.53050
C462        C  0.09777366  0.47166909  0.84959552     0.72710
Zr463      Zr  0.98938466  0.42699371  0.83631420     2.54710
O464        O  0.98927486  0.42916785  0.93875851    -0.80500
O465        O  0.99242051  0.36351421  0.83093659    -0.93920
Zr466      Zr  0.99393032  0.53507069  0.83648798     2.64680
O467        O  0.99885876  0.53370413  0.93879102    -0.98870
O468        O  0.99213005  0.59920945  0.83880353    -0.80930
O469        O  0.95103588  0.46218776  0.84080533    -0.84290
O470        O  0.03205277  0.50007851  0.83433104    -2.19000
O471        O  0.05014243  0.43624908  0.63751223    -0.67680
O472        O  0.10246184  0.49360347  0.67840205    -0.52240
C473        C  0.08879039  0.46252613  0.64398062     0.71090
O474        O  0.91911434  0.51664288  0.64191483    -0.60590
O475        O  0.87051160  0.46303588  0.69489412    -0.52560
C476        C  0.88147789  0.49054260  0.65589954     0.72890
O477        O  0.05860023  0.58918548  0.64355300    -0.71980
O478        O  0.10654148  0.57909352  0.68970301    -0.50660
C479        C  0.09615667  0.59882292  0.65518029     0.74280
O480        O  0.91279569  0.37461143  0.64616399    -0.67310
O481        O  0.86656104  0.38253591  0.69993664    -0.54510
C482        C  0.87559371  0.36390703  0.66144606     0.72660
Zr483      Zr  0.98380344  0.42629331  0.66874398     2.77540
O484        O  0.97581287  0.43323637  0.56830484    -0.98060
O485        O  0.98295845  0.36108251  0.65857052    -0.78880
Zr486      Zr  0.98901737  0.53428632  0.66987738     2.70070
O487        O  0.99040754  0.53190946  0.56731349    -0.80130
O488        O  0.98599532  0.59785723  0.67301279    -0.99210
Zr489      Zr  0.90900882  0.44307621  0.75817039     2.21500
Zr490      Zr  0.06920282  0.51778609  0.74703490     2.11130
O491        O  0.02719288  0.49908547  0.66455212    -2.47900
O492        O  0.94584276  0.46132215  0.67117582    -0.79920
O493        O  0.02677067  0.44442668  0.74973515    -0.72120
O494        O  0.95111769  0.51647977  0.75556159    -2.33070
O495        O  0.94670688  0.40693994  0.75490252    -2.29280
O496        O  0.03168524  0.55394277  0.75091407    -0.73880
H497        H  0.05096517  0.50946536  0.86587596     0.78120
H498        H  0.93416897  0.52932679  0.75655432     0.79210
H499        H  0.04398479  0.50712427  0.63075971     0.81430
H500        H  0.92834944  0.37734604  0.75522299     0.79040
H501        H  0.98184121  0.60106712  0.80109312     0.42080
H502        H  0.00888400  0.61637300  0.69854243     0.41050
H503        H  0.96588828  0.50505996  0.55707837     0.40720
H504        H  0.00374445  0.45420836  0.55499204     0.38660
H505        H  0.99260113  0.35691700  0.69554364     0.41790
H506        H  0.97086155  0.34610301  0.80309073     0.36570
H507        H  0.97291737  0.44265616  0.94813362     0.42690
H508        H  0.02011712  0.52578977  0.94602637     0.39110
H509        H  0.97079959  0.40676945  0.55170011     0.44030
H510        H  0.98138827  0.34979306  0.86766940     0.42750
H511        H  0.01227208  0.56312115  0.95034406     0.42880
H512        H  0.99527220  0.61014561  0.63509223     0.43240
O513        O  0.45625408  0.37303622  0.64402136    -0.75630
O514        O  0.50900563  0.37952477  0.69931879    -0.54540
C515        C  0.48123980  0.36086077  0.66094598     0.78100
O516        O  0.52915793  0.58746515  0.64989385    -0.60230
O517        O  0.46608728  0.57370439  0.68156883    -0.53260
C518        C  0.49978888  0.59589752  0.65335207     0.70110
O519        O  0.60060891  0.51954722  0.65426278    -0.74790
O520        O  0.59336793  0.46352884  0.70126079    -0.55350
C521        C  0.61380001  0.49485609  0.66869102     0.76120
O522        O  0.38424989  0.44045408  0.63380675    -0.59930
O523        O  0.38385386  0.48866440  0.69161580    -0.53050
C524        C  0.36861340  0.46260277  0.65079266     0.72710
Zr525      Zr  0.43677671  0.42456000  0.66874760     2.54710
O526        O  0.43330218  0.41606304  0.56675817    -0.80500
O527        O  0.37043874  0.36281323  0.68712941    -0.93920
Zr528      Zr  0.54195912  0.53104984  0.66983028     2.64680
O529        O  0.53450297  0.51804863  0.56872550    -0.98870
O530        O  0.60355692  0.59797244  0.65451527    -0.80930
O531        O  0.51061105  0.45825893  0.66926510    -0.84290
O532        O  0.46854332  0.49752308  0.66508217    -2.19000
O533        O  0.37904961  0.43867805  0.86051674    -0.67710
O534        O  0.38819072  0.49613834  0.81389320    -0.52240
C535        C  0.36923114  0.46623673  0.84935813     0.71090
O536        O  0.59342899  0.52036639  0.86936422    -0.60590
O537        O  0.59016363  0.46718931  0.81809600    -0.52560
C538        C  0.60693692  0.49567567  0.85586411     0.72890
O539        O  0.52113443  0.58871083  0.85471428    -0.71980
O540        O  0.46522940  0.57843998  0.80278603    -0.50660
C541        C  0.49412790  0.59868815  0.83888347     0.74280
O542        O  0.45091126  0.37356666  0.86544546    -0.67310
O543        O  0.51057124  0.38485483  0.82197126    -0.54510
C544        C  0.47989372  0.36516291  0.85606495     0.72660
Zr545      Zr  0.43485091  0.42612616  0.83550547     2.77540
O546        O  0.43674459  0.43003361  0.93806936    -0.98060
O547        O  0.37077418  0.35964291  0.83311322    -0.78880
Zr548      Zr  0.53903862  0.53443961  0.83711205     2.70070
O549        O  0.53236652  0.53397375  0.93920198    -0.80130
O550        O  0.60382597  0.60014330  0.83547389    -0.99210
Zr551      Zr  0.53038178  0.44144603  0.75642931     2.21500
Zr552      Zr  0.44614687  0.51680241  0.74838525     2.11130
O553        O  0.46563067  0.49929743  0.83541861    -2.47900
O554        O  0.50837558  0.46117936  0.83970497    -0.79920
O555        O  0.41389740  0.44366375  0.75054413    -0.72120
O556        O  0.56232418  0.51497560  0.75580578    -2.33070
O557        O  0.45652535  0.40579877  0.75368867    -2.29280
O558        O  0.51991181  0.55197222  0.75105651    -0.73880
H559        H  0.46003005  0.50587217  0.63152601     0.78120
H560        H  0.59218917  0.52829539  0.75746274     0.79210
H561        H  0.45586973  0.50828899  0.86725055     0.81430
H562        H  0.44523528  0.37623605  0.75457272     0.79040
H563        H  0.61078391  0.61083434  0.69247298     0.42080
H564        H  0.60122460  0.61499922  0.80268475     0.41050
H565        H  0.52184252  0.50476864  0.94975579     0.40720
H566        H  0.43738931  0.45622763  0.94723764     0.38660
H567        H  0.35279352  0.36347260  0.80604302     0.41790
H568        H  0.37686441  0.34523170  0.71128824     0.36570
H569        H  0.46239955  0.43328014  0.55402441     0.42690
H570        H  0.51565140  0.52794780  0.55626210     0.39110
H571        H  0.40879180  0.40811313  0.95000074     0.44030
H572        H  0.36228883  0.34834597  0.65036925     0.42750
H573        H  0.56192749  0.53817999  0.55289404     0.42880
H574        H  0.60257435  0.61549577  0.86888286     0.43240
O575        O  0.59985570  0.05571429  0.64282309    -0.75630
O576        O  0.59161732  0.10058209  0.69920300    -0.54540
C577        C  0.61054629  0.09264554  0.66003630     0.78100
O578        O  0.37978895  0.91421720  0.65224114    -0.60230
O579        O  0.39277603  0.86500417  0.68415436    -0.53260
C580        C  0.37020339  0.87633341  0.65701582     0.70110
O581        O  0.45658011  0.05147711  0.64005827    -0.74790
O582        O  0.51181571  0.09922159  0.69155087    -0.55350
C583        C  0.48360628  0.08873221  0.65366858     0.76120
O584        O  0.53237922  0.91456351  0.63896422    -0.59930
O585        O  0.47542429  0.86544343  0.68626652    -0.53050
C586        C  0.50513845  0.87670858  0.65050598     0.72710
Zr587      Zr  0.54720642  0.98408716  0.66790461     2.54710
O588        O  0.54692711  0.98629921  0.56535197    -0.80500
O589        O  0.61103016  0.98137118  0.67205970    -0.93920
Zr590      Zr  0.43981480  0.98214654  0.66685884     2.64680
O591        O  0.44515100  0.97723532  0.56510676    -0.98870
O592        O  0.37849422  0.98899256  0.65721772    -0.80930
O593        O  0.51312918  0.02344609  0.66847393    -0.84290
O594        O  0.47359900  0.94270710  0.66334212    -2.19000
O595        O  0.52769083  0.91032043  0.85827077    -0.67680
O596        O  0.47721703  0.86369109  0.80098203    -0.52240
C597        C  0.50452985  0.87319101  0.83979372     0.71090
O598        O  0.44763856  0.04709035  0.85759874    -0.60590
O599        O  0.50458139  0.09694648  0.81345211    -0.52560
C600        C  0.47283242  0.08527474  0.84578608     0.72890
O601        O  0.38362387  0.90725818  0.85880596    -0.71980
O602        O  0.39429345  0.86075860  0.80916949    -0.50660
C603        C  0.37484371  0.87021885  0.84586603     0.74280
O604        O  0.59161161  0.04943289  0.87213338    -0.67310
O605        O  0.58780953  0.09831431  0.81968175    -0.54510
C606        C  0.60364201  0.08730470  0.85945066     0.72660
Zr607      Zr  0.54310741  0.98039010  0.83581633     2.77540
O608        O  0.54237158  0.97559048  0.93825025    -0.98060
O609        O  0.61039581  0.98511784  0.82703071    -0.78880
Zr610      Zr  0.43550472  0.97817621  0.83370036     2.70070
O611        O  0.43670484  0.97898855  0.93625455    -0.80130
O612        O  0.36797917  0.97351565  0.82909592    -0.99210
Zr613      Zr  0.53009450  0.06039334  0.75551182     2.21500
Zr614      Zr  0.45240196  0.90189720  0.74700323     2.11130
O615        O  0.46979288  0.93911177  0.83412391    -2.47900
O616        O  0.50889528  0.01954218  0.83890886    -0.79920
O617        O  0.52592040  0.94256424  0.75009989    -0.72120
O618        O  0.45644761  0.01999498  0.75194372    -2.33070
O619        O  0.56552094  0.02210749  0.75398149    -2.29280
O620        O  0.41717514  0.94011570  0.74832076    -0.73880
H621        H  0.46517443  0.92541707  0.63001667     0.78120
H622        H  0.44385318  0.03714364  0.75122067     0.79210
H623        H  0.46068398  0.92052178  0.86593369     0.81430
H624        H  0.59521219  0.04025540  0.75568300     0.79040
H625        H  0.36981043  0.98982232  0.69650832     0.42080
H626        H  0.35278715  0.95273781  0.79925702     0.41050
H627        H  0.46648102  0.99188672  0.94598164     0.40720
H628        H  0.51497691  0.95148438  0.94755866     0.38660
H629        H  0.60764960  0.96795870  0.79358719     0.41790
H630        H  0.62882866  0.00338283  0.69911605     0.36570
H631        H  0.53435399  0.00349795  0.55641681     0.42690
H632        H  0.42996744  0.94723284  0.55664268     0.39110
H633        H  0.56253879  0.96647389  0.94693606     0.44030
H634        H  0.62424674  0.99153020  0.63478326     0.42750
H635        H  0.42735343  0.98755316  0.54971116     0.42880
H636        H  0.35383317  0.95974054  0.86461955     0.43240
C637        C  0.31943845  0.78677501  0.95457155    -0.02180
C638        C  0.27795474  0.77858824  0.95105220     0.07500
C639        C  0.26787314  0.79657293  0.90501479    -0.02300
C640        C  0.29951683  0.82509153  0.86877719    -0.02300
C641        C  0.34105394  0.83624101  0.87792634     0.07630
C642        C  0.35082853  0.81634799  0.91992217    -0.02500
Br643      Br  0.40808153  0.83221191  0.93268076    -0.01040
Br644      Br  0.33316320  0.75492717  0.50394389    -0.01120
Br645      Br  0.28676173  0.85021334  0.80662733    -0.01080
Br646      Br  0.21262552  0.78551695  0.88976562    -0.01060
C647        C  0.31231167  0.85570750  0.58456207    -0.02180
C648        C  0.33140627  0.84434696  0.62740406     0.07500
C649        C  0.31311650  0.80172806  0.64034598    -0.02300
C650        C  0.28381931  0.77131466  0.60315604    -0.02300
C651        C  0.26821436  0.78316622  0.55608558     0.07630
C652        C  0.27868349  0.82511418  0.55371350    -0.02500
Br653      Br  0.24592704  0.84134930  0.00915334    -0.01040
Br654      Br  0.33205739  0.91244840  0.56198138    -0.01120
Br655      Br  0.26971962  0.71523976  0.61810689    -0.01080
Br656      Br  0.32666718  0.78412617  0.71010203    -0.01060
C657        C  0.17786609  0.64630651  0.87129965    -0.02180
C658        C  0.13656027  0.63816984  0.86611819     0.07500
C659        C  0.12661925  0.66640357  0.89124116    -0.02300
C660        C  0.15192999  0.69344153  0.93367913    -0.02300
C661        C  0.19209510  0.69937398  0.94379169     0.07630
C662        C  0.20639524  0.67914138  0.90626944    -0.02500
Br663      Br  0.26397353  0.69464171  0.89976223    -0.01040
Br664      Br  0.19623357  0.61235590  0.83303846    -0.01120
Br665      Br  0.13051358  0.72319658  0.97535413    -0.01080
Br666      Br  0.08041539  0.67142912  0.86418191    -0.01060
C667        C  0.18551115  0.65387235  0.55393503    -0.02180
C668        C  0.19031990  0.69396312  0.55001218     0.07500
C669        C  0.16786657  0.70442337  0.58929678    -0.02300
C670        C  0.13701124  0.67347373  0.62417611    -0.02300
C671        C  0.13004717  0.63283532  0.62282001     0.07630
C672        C  0.15572240  0.62384520  0.58969019    -0.02500
Br673      Br  0.14858457  0.56910826  0.59165024    -0.01040
Br674      Br  0.22327254  0.64070827  0.51636638    -0.01120
Br675      Br  0.10448401  0.68648881  0.67493373    -0.01080
Br676      Br  0.17842534  0.76009257  0.59855809    -0.01060
C677        C  0.26254640  0.42992980  0.91252860    -0.02180
C678        C  0.27173910  0.46287274  0.95098439     0.07500
C679        C  0.31244887  0.49693708  0.95133841    -0.02300
C680        C  0.34446107  0.49439148  0.92458970    -0.02300
C681        C  0.33509247  0.46459509  0.88269103     0.07630
C682        C  0.29376176  0.43263396  0.87556669    -0.02500
Br683      Br  0.28063695  0.39216639  0.81664361    -0.01040
Br684      Br  0.20716355  0.38309416  0.90527340    -0.01120
Br685      Br  0.39960805  0.52428978  0.95604248    -0.01080
Br686      Br  0.32405432  0.54965114  0.47933937    -0.01060
C687        C  0.26883528  0.41818329  0.56236532    -0.02180
C688        C  0.26411919  0.45301153  0.55517485     0.07500
C689        C  0.28833233  0.48797459  0.58990759    -0.02300
C690        C  0.32192297  0.49116111  0.62142878    -0.02300
C691        C  0.33081637  0.45826912  0.62124779     0.07630
C692        C  0.30211278  0.42075436  0.59394788    -0.02500
Br693      Br  0.30616964  0.37139473  0.59980107    -0.01040
Br694      Br  0.22605666  0.36522353  0.03546780    -0.01120
Br695      Br  0.35612690  0.54271201  0.66155228    -0.01080
Br696      Br  0.27421651  0.53071862  0.59966037    -0.01060
C697        C  0.14942319  0.50134428  0.92776154    -0.02180
C698        C  0.13204235  0.47312325  0.88274297     0.07500
C699        C  0.15141974  0.45085816  0.86552567    -0.02300
C700        C  0.18792980  0.45769043  0.89264420    -0.02300
C701        C  0.19692598  0.47536395  0.94740419     0.07630
C702        C  0.18196296  0.50249964  0.95949935    -0.02500
Br703      Br  0.20823490  0.54222918  0.51775876    -0.01040
Br704      Br  0.12716086  0.53649976  0.94740947    -0.01120
Br705      Br  0.23310423  0.47954171  0.83955753    -0.01080
Br706      Br  0.13120580  0.41424506  0.80146731    -0.01060
C707        C  0.10556179  0.43101157  0.55896961    -0.02180
C708        C  0.11867322  0.45513118  0.60960602     0.07500
C709        C  0.15879098  0.46674779  0.63014264    -0.02300
C710        C  0.18344231  0.45343922  0.60195953    -0.02300
C711        C  0.17468042  0.43989690  0.54532434     0.07630
C712        C  0.13283736  0.42173050  0.52939736    -0.02500
Br713      Br  0.11270412  0.38148518  0.96921908    -0.01040
Br714      Br  0.05282474  0.41406519  0.52361105    -0.01120
Br715      Br  0.20028163  0.42387618  0.65166456    -0.01080
Br716      Br  0.18041499  0.49703384  0.69970721    -0.01060
C717        C  0.53244884  0.67338717  0.86951222    -0.02180
C718        C  0.49555290  0.63501853  0.86668235     0.07500
C719        C  0.46075731  0.63032715  0.89589724    -0.02300
C720        C  0.46625702  0.65649834  0.94162381    -0.02300
C721        C  0.50350084  0.69513066  0.94695121     0.07630
C722        C  0.53508227  0.70481990  0.90576602    -0.02500
Br723      Br  0.58200232  0.75937840  0.89652214    -0.01040
Br724      Br  0.57787650  0.68354821  0.82014153    -0.01120
Br725      Br  0.42061757  0.63976862  0.49323457    -0.01080
Br726      Br  0.40591726  0.59521924  0.86581906    -0.01060
C727        C  0.48383288  0.65410717  0.63550619    -0.02180
C728        C  0.50583457  0.63340393  0.62147458     0.07500
C729        C  0.53520259  0.65015859  0.57694189    -0.02300
C730        C  0.54261742  0.68648638  0.54989537    -0.02300
C731        C  0.51348475  0.70018417  0.55274697     0.07630
C732        C  0.48475940  0.68461276  0.59881312    -0.02500
Br733      Br  0.44440222  0.70105548  0.61365158    -0.01040
Br734      Br  0.45359753  0.64249864  0.70600620    -0.01120
Br735      Br  0.59547957  0.71905387  0.01333812    -0.01080
Br736      Br  0.56327883  0.62284154  0.54530643    -0.01060
C737        C  0.47702729  0.79751641  0.86656503    -0.02180
C738        C  0.50927172  0.83942923  0.86681003     0.07500
C739        C  0.54615070  0.84939275  0.89598918    -0.02300
C740        C  0.54691488  0.82167440  0.93528965    -0.02300
C741        C  0.51233884  0.78117514  0.94206252     0.07630
C742        C  0.47924183  0.76835329  0.90229510    -0.02500
Br743      Br  0.43508862  0.71209346  0.89407490    -0.01040
Br744      Br  0.42857812  0.77860254  0.81835508    -0.01120
Br745      Br  0.59704628  0.84073825  0.97871664    -0.01080
Br746      Br  0.59745131  0.89982125  0.87939613    -0.01060
C747        C  0.53804567  0.83441422  0.62154300    -0.02180
C748        C  0.50553307  0.84322382  0.61738882     0.07500
C749        C  0.47114352  0.81812606  0.58342751    -0.02300
C750        C  0.47087247  0.78703521  0.54984214    -0.02300
C751        C  0.50538687  0.78078439  0.54806592     0.07630
C752        C  0.53759434  0.80253233  0.58820857    -0.02500
Br753      Br  0.58065074  0.78918350  0.60031082    -0.01040
Br754      Br  0.58271284  0.86585620  0.67377578    -0.01120
Br755      Br  0.42030748  0.74944423  0.51207829    -0.01080
Br756      Br  0.42453401  0.82739745  0.58135433    -0.01060
C757        C  0.82454749  0.27227416  0.56285581    -0.02180
C758        C  0.79077922  0.27544673  0.54179133     0.07500
C759        C  0.78435534  0.30731543  0.56342480    -0.02300
C760        C  0.80719192  0.33117468  0.61019708    -0.02300
C761        C  0.84176701  0.32890245  0.62944528     0.07630
C762        C  0.84853429  0.29748087  0.60783760    -0.02500
Br763      Br  0.88883747  0.28646618  0.64279002    -0.01040
Br764      Br  0.84347687  0.23880969  0.52539829    -0.01120
Br765      Br  0.78897409  0.36511235  0.64876885    -0.01080
Br766      Br  0.74921466  0.32398583  0.52583944    -0.01060
C767        C  0.80859420  0.25553859  0.91153498    -0.02180
C768        C  0.77618797  0.25984737  0.93597035     0.07500
C769        C  0.77413434  0.29441834  0.91683326    -0.02300
C770        C  0.80977736  0.32998482  0.89755064    -0.02300
C771        C  0.84576342  0.32841579  0.88324677     0.07630
C772        C  0.84374665  0.28975146  0.88694013    -0.02500
Br773      Br  0.88692082  0.28215993  0.85402965    -0.01040
Br774      Br  0.79917729  0.20142027  0.89474636    -0.01120
Br775      Br  0.80751984  0.38014811  0.89076341    -0.01080
Br776      Br  0.72239477  0.28693971  0.88972587    -0.01060
C777        C  0.67171153  0.11618652  0.91094825    -0.02180
C778        C  0.63765761  0.12027969  0.89405457     0.07500
C779        C  0.63479238  0.15437355  0.91410703    -0.02300
C780        C  0.66486587  0.18320684  0.95150495    -0.02300
C781        C  0.69867377  0.17892743  0.96944624     0.07630
C782        C  0.70047621  0.14368897  0.95077750    -0.02500
Br783      Br  0.73849139  0.12863405  0.98285859    -0.01040
Br784      Br  0.68077562  0.07414252  0.87717746    -0.01120
Br785      Br  0.65631488  0.22569683  0.98317671    -0.01080
Br786      Br  0.58834336  0.16076527  0.89328940    -0.01060
C787        C  0.68299351  0.20022399  0.59900849    -0.02180
C788        C  0.71495291  0.19518682  0.57453377     0.07500
C789        C  0.71837635  0.16200697  0.59653050    -0.02300
C790        C  0.68407609  0.12778304  0.62200143    -0.02300
C791        C  0.64733565  0.12882730  0.63341613     0.07630
C792        C  0.64862351  0.16707178  0.62587056    -0.02500
Br793      Br  0.60513651  0.17664910  0.65393325    -0.01040
Br794      Br  0.69288404  0.25431605  0.61735797    -0.01120
Br795      Br  0.69017996  0.08202217  0.64658315    -0.01080
Br796      Br  0.77252623  0.17002701  0.61104054    -0.01060
C797        C  0.44959573  0.28980187  0.87809078    -0.02180
C798        C  0.47895192  0.33146806  0.88889617     0.07500
C799        C  0.50851410  0.34148825  0.93105322    -0.02300
C800        C  0.51161903  0.31019851  0.95837062    -0.02300
C801        C  0.47888923  0.26833698  0.95520137     0.07630
C802        C  0.44814582  0.25819349  0.91255250    -0.02500
Br803      Br  0.40320320  0.20285098  0.89932780    -0.01040
Br804      Br  0.41031309  0.27683349  0.81749199    -0.01120
Br805      Br  0.56444502  0.32589156  0.99203710    -0.01080
Br806      Br  0.54097492  0.39789910  0.95750579    -0.01060
C807        C  0.51029949  0.31465596  0.62921199    -0.02180
C808        C  0.47698756  0.32264071  0.63347486     0.07500
C809        C  0.43881514  0.29374533  0.60866932    -0.02300
C810        C  0.43730459  0.26550509  0.56831544    -0.02300
C811        C  0.47176641  0.25978653  0.55996766     0.07630
C812        C  0.50604073  0.28084345  0.59693116    -0.02500
Br813      Br  0.54827752  0.26563981  0.60394697    -0.01040
Br814      Br  0.56344832  0.35101131  0.66245454    -0.01120
Br815      Br  0.38659119  0.23391780  0.52612583    -0.01080
Br816      Br  0.38730502  0.28938351  0.63281069    -0.01060
C817        C  0.49211685  0.16055930  0.86261803    -0.02180
C818        C  0.46537894  0.11770128  0.87292775     0.07500
C819        C  0.43206968  0.10665528  0.91127370    -0.02300
C820        C  0.43184079  0.13677833  0.94688172    -0.02300
C821        C  0.46531787  0.17805567  0.94713645     0.07630
C822        C  0.49368552  0.19049600  0.90101991    -0.02500
Br823      Br  0.53728254  0.24688961  0.88979849    -0.01040
Br824      Br  0.52444095  0.17953891  0.79364956    -0.01120
Br825      Br  0.38407077  0.12121888  0.99447880    -0.01080
Br826      Br  0.38452086  0.05120826  0.91502658    -0.01060
C827        C  0.45567706  0.13604791  0.63527553    -0.02180
C828        C  0.48304962  0.12179739  0.62133007     0.07500
C829        C  0.50936265  0.13822567  0.57488760    -0.02300
C830        C  0.51037543  0.17080673  0.54504178    -0.02300
C831        C  0.47896044  0.18127621  0.55168486     0.07630
C832        C  0.45195087  0.16423266  0.59934496    -0.02500
Br833      Br  0.40827456  0.17553409  0.61724594    -0.01040
Br834      Br  0.42167285  0.11445355  0.70214266    -0.01120
Br835      Br  0.55827626  0.20430704  0.00040488    -0.01080
Br836      Br  0.54084465  0.11321340  0.54792100    -0.01060
C837        C  0.64733308  0.46488669  0.90011776    -0.02180
C838        C  0.64412301  0.50007120  0.88639586     0.07500
C839        C  0.67794836  0.53958419  0.90056388    -0.02300
C840        C  0.71232725  0.54300163  0.93022208    -0.02300
C841        C  0.70934359  0.50794231  0.95708823     0.07630
C842        C  0.67716584  0.46850117  0.93965303    -0.02500
Br843      Br  0.67783339  0.41928866  0.96067647    -0.01040
Br844      Br  0.61521578  0.41245481  0.86114689    -0.01120
Br845      Br  0.76620547  0.59137269  0.41770770    -0.01080
Br846      Br  0.68014179  0.58971751  0.87590361    -0.01060
C847        C  0.69572026  0.47612089  0.59920612    -0.02180
C848        C  0.71491244  0.51109019  0.56269180     0.07500
C849        C  0.70955263  0.54530397  0.57696888    -0.02300
C850        C  0.68082977  0.54160812  0.61842047    -0.02300
C851        C  0.65450570  0.50320342  0.64358230     0.07630
C852        C  0.66726729  0.47348440  0.64124371    -0.02500
Br853      Br  0.65389435  0.43537508  0.70287871    -0.01040
Br854      Br  0.70690761  0.43120282  0.59504990    -0.01120
Br855      Br  0.68293573  0.59091541  0.64840262    -0.01080
Br856      Br  0.74307332  0.59953344  0.54525387    -0.01060
C857        C  0.81026345  0.52768433  0.60091313    -0.02180
C858        C  0.79369585  0.50306781  0.55113607     0.07500
C859        C  0.80308319  0.47100543  0.54183579    -0.02300
C860        C  0.83287720  0.46811590  0.57457916    -0.02300
C861        C  0.84868753  0.49228755  0.62333243     0.07630
C862        C  0.83622316  0.52094259  0.63762449    -0.02500
Br863      Br  0.85824195  0.55346917  0.70571941    -0.01040
Br864      Br  0.80292760  0.57365724  0.61889776    -0.01120
Br865      Br  0.85601881  0.43481865  0.54845170    -0.01080
Br866      Br  0.77440138  0.42941343  0.48518552    -0.01060
C867        C  0.87071603  0.53573097  0.93384693    -0.02180
C868        C  0.85756785  0.50680211  0.88856734     0.07500
C869        C  0.81646344  0.49098224  0.86834639    -0.02300
C870        C  0.78865176  0.50082179  0.89625633    -0.02300
C871        C  0.80063077  0.52461574  0.94734594     0.07630
C872        C  0.84376174  0.54811438  0.95667249    -0.02500
Br873      Br  0.86596610  0.59750211  0.50208206    -0.01040
Br874      Br  0.92291811  0.55503602  0.97270540    -0.01120
Br875      Br  0.74655816  0.49875787  0.84725896    -0.01080
Br876      Br  0.79712827  0.45695845  0.80058849    -0.01060
loop_ 
_geom_bond_atom_site_label_1 
_geom_bond_atom_site_label_2 
_geom_bond_distance 
_geom_bond_site_symmetry_2 
_ccdc_geom_bond_type 
C1          C433   1.551       .  S
C1          C858   1.533       .  S
C1          C440   1.393       .  D
C2          C410   1.527       .  S
C2          C841   1.503   1_554  S
C2          C439   1.393       .  D
C3          C393   1.526       .  S
C3          C821   1.524   1_554  S
C3            C4   1.386       .  D
C4          C373   1.510       .  S
C4          C801   1.521   1_554  S
C5          C350   1.540       .  S
C5          C781   1.510   1_554  S
C5          C444   1.397   1_554  D
C6          C330   1.537       .  S
C6          C758   1.506       .  S
C6          C443   1.397       .  D
C7          C313   1.519   1_556  S
C7          C741   1.534       .  S
C7            C8   1.393       .  D
C8          C293   1.536   1_556  S
C8          C721   1.519       .  S
C9          C263   1.540       .  S
C9          C711   1.538       .  S
C9          C448   1.383       .  D
C10         C250   1.513       .  S
C10         C678   1.503   1_554  S
C10         C447   1.383   1_554  D
C11         C213   1.532       .  S
C11         C638   1.527   1_554  S
C11         C450   1.390   1_554  D
C12         C223   1.524       .  S
C12         C668   1.521       .  S
C12         C449   1.390       .  D
O13         Zr25   2.475       .  S
O13          C15   1.294       .  A
O14         Zr51   2.413       .  S
O14          C15   1.285       .  A
C15         C333   1.496       .  S
O16         Zr28   2.435   1_455  S
O16          C18   1.287       .  A
O17         Zr52   2.432       .  S
O17          C18   1.286       .  A
C18         C220   1.500       .  S
O19         Zr28   2.425       .  S
O19          C21   1.282       .  A
O20         Zr51   2.448       .  S
O20          C21   1.289       .  A
C21         C430   1.509       .  S
O22         Zr25   2.463   1_455  S
O22          C24   1.292       .  A
O23         Zr52   2.429       .  S
O23          C24   1.288       .  A
C24         C260   1.478       .  S
Zr25         O26   2.429       .  S
Zr25         O27   2.433       .  S
Zr25         O31   2.379       .  S
Zr25         O32   2.374   1_655  S
Zr25         O55   2.379   1_655  S
Zr25         O57   2.371       .  S
O26          H69   0.990       .  S
O27          H68   0.990       .  S
O27          H72   0.990       .  S
Zr28         O29   2.435       .  S
Zr28         O30   2.431       .  S
Zr28         O32   2.364   1_655  S
Zr28         O31   2.371       .  S
Zr28         O56   2.367       .  S
Zr28         O58   2.364   1_655  S
O29          H70   0.990   1_655  S
O29          H73   0.990   1_655  S
O30          H63   0.990       .  S
O31         Zr51   2.384       .  S
O32         Zr52   2.389       .  S
O32          H59   0.965       .  S
O33         Zr45   2.421   1_455  S
O33          C35   1.282       .  A
O34         Zr52   2.468       .  S
O34          C35   1.294       .  A
C35         C270   1.510       .  S
O36         Zr48   2.437       .  S
O36          C38   1.287       .  A
O37         Zr51   2.441       .  S
O37          C38   1.289       .  A
C38         C423   1.476       .  S
O39         Zr48   2.447   1_455  S
O39          C41   1.288       .  A
O40         Zr52   2.419       .  S
O40          C41   1.287       .  A
C41         C233   1.480       .  S
O42         Zr45   2.427       .  S
O42          C44   1.286       .  A
O43         Zr51   2.434       .  S
O43          C44   1.287       .  A
C44         C323   1.490       .  S
Zr45         O46   2.431       .  S
Zr45         O47   2.432       .  S
Zr45         O53   2.370   1_655  S
Zr45         O54   2.360       .  S
Zr45         O57   2.365       .  S
Zr45         O55   2.372   1_655  S
O46          H66   0.990   1_655  S
O46          H71   0.990       .  S
O47          H67   0.990       .  S
Zr48         O49   2.433       .  S
Zr48         O50   2.434       .  S
Zr48         O54   2.372       .  S
Zr48         O53   2.375   1_655  S
Zr48         O58   2.364   1_655  S
Zr48         O56   2.369       .  S
O49          H65   0.990       .  S
O50          H64   0.990   1_655  S
O50          H74   0.990       .  S
Zr51         O54   2.378       .  S
Zr51         O56   2.383       .  S
Zr51         O57   2.387       .  S
Zr52         O53   2.381       .  S
Zr52         O55   2.382       .  S
Zr52         O58   2.382       .  S
O53          H61   0.966       .  S
O56          H60   0.966       .  S
O57          H62   0.966       .  S
O75         Zr87   2.442       .  S
O75          C77   1.289       .  A
O76        Zr113   2.439       .  S
O76          C77   1.289       .  A
C77         C370   1.501       .  S
O78         Zr90   2.431       .  S
O78          C80   1.283       .  A
O79        Zr114   2.454       .  S
O79          C80   1.291       .  A
C80         C290   1.509       .  S
O81         Zr90   2.455       .  S
O81          C83   1.291       .  A
O82        Zr113   2.438       .  S
O82          C83   1.287       .  A
C83         C413   1.507       .  S
O84         Zr87   2.459       .  S
O84          C86   1.290       .  A
O85        Zr114   2.421       .  S
O85          C86   1.283       .  A
C86         C253   1.508       .  S
Zr87         O88   2.432       .  S
Zr87         O89   2.431       .  S
Zr87         O93   2.383       .  S
Zr87         O94   2.368       .  S
Zr87        O117   2.362       .  S
Zr87        O119   2.371       .  S
O88         H131   0.990       .  S
O89         H130   0.989       .  S
O89         H134   0.988       .  S
Zr90         O91   2.431       .  S
Zr90         O92   2.430       .  S
Zr90         O94   2.372       .  S
Zr90         O93   2.362       .  S
Zr90        O118   2.359       .  S
Zr90        O120   2.368       .  S
O91         H132   0.990       .  S
O91         H135   0.990       .  S
O92         H125   0.990       .  S
O93        Zr113   2.385       .  S
O94        Zr114   2.385       .  S
O94         H121   0.966       .  S
O95        Zr107   2.420       .  S
O95          C97   1.282       .  A
O96        Zr114   2.446       .  S
O96          C97   1.291       .  A
C97         C243   1.470       .  S
O98        Zr110   2.459       .  S
O98         C100   1.291       .  A
O99        Zr113   2.425       .  S
O99         C100   1.286       .  A
C100        C400   1.499       .  S
O101       Zr110   2.465       .  S
O101        C103   1.293       .  A
O102       Zr114   2.410       .  S
O102        C103   1.283       .  A
C103        C280   1.483       .  S
O104       Zr107   2.431       .  S
O104        C106   1.285       .  A
O105       Zr113   2.426       .  S
O105        C106   1.287       .  A
C106        C360   1.468       .  S
Zr107       O108   2.433       .  S
Zr107       O109   2.435       .  S
Zr107       O115   2.377       .  S
Zr107       O116   2.373       .  S
Zr107       O119   2.362       .  S
Zr107       O117   2.372       .  S
O108        H128   0.990       .  S
O108        H133   0.990       .  S
O109        H129   0.990       .  S
Zr110       O111   2.430       .  S
Zr110       O112   2.432       .  S
Zr110       O116   2.381       .  S
Zr110       O115   2.367       .  S
Zr110       O120   2.363       .  S
Zr110       O118   2.367       .  S
O111        H127   0.990       .  S
O112        H126   0.990       .  S
O112        H136   0.990       .  S
Zr113       O116   2.386       .  S
Zr113       O118   2.385       .  S
Zr113       O119   2.382       .  S
Zr114       O115   2.389       .  S
Zr114       O117   2.372       .  S
Zr114       O120   2.379       .  S
O115        H123   0.966       .  S
O118        H122   0.965       .  S
O119        H124   0.965       .  S
O137       Zr149   2.472   1_545  S
O137        C139   1.294       .  A
O138       Zr175   2.416       .  S
O138        C139   1.284       .  A
C139        C353   1.500       .  S
O140       Zr152   2.423       .  S
O140        C142   1.280       .  A
O141       Zr176   2.447       .  S
O141        C142   1.289       .  A
C142        C210   1.509       .  S
O143       Zr152   2.428   1_545  S
O143        C145   1.284       .  A
O144       Zr175   2.425       .  S
O144        C145   1.286       .  A
C145        C390   1.466       .  S
O146       Zr149   2.464       .  S
O146        C148   1.292       .  A
O147       Zr176   2.410       .  S
O147        C148   1.285       .  A
C148        C310   1.480       .  S
Zr149       O150   2.432       .  S
Zr149       O151   2.432       .  S
Zr149       O155   2.376   1_565  S
Zr149       O156   2.381       .  S
Zr149       O179   2.370       .  S
Zr149       O181   2.378   1_565  S
O150        H193   0.990   1_565  S
O151        H192   0.989   1_565  S
O151        H196   0.990       .  S
Zr152       O153   2.432       .  S
Zr152       O154   2.434       .  S
Zr152       O156   2.370       .  S
Zr152       O155   2.370   1_565  S
Zr152       O180   2.356   1_565  S
Zr152       O182   2.365       .  S
O153        H194   0.990       .  S
O153        H197   0.990       .  S
O154        H187   0.990       .  S
O155       Zr175   2.381       .  S
O156       Zr176   2.385       .  S
O156        H183   0.966       .  S
O157       Zr169   2.444       .  S
O157        C159   1.288       .  A
O158       Zr176   2.424       .  S
O158        C159   1.284       .  A
C159        C300   1.505       .  S
O160       Zr172   2.445   1_545  S
O160        C162   1.286       .  A
O161       Zr175   2.435       .  S
O161        C162   1.287       .  A
C162        C380   1.512       .  S
O163       Zr172   2.447       .  S
O163        C165   1.288       .  A
O164       Zr176   2.426       .  S
O164        C165   1.287       .  A
C165        C203   1.475       .  S
O166       Zr169   2.445   1_545  S
O166        C168   1.289       .  A
O167       Zr175   2.427       .  S
O167        C168   1.287       .  A
C168        C340   1.493       .  S
Zr169       O170   2.434       .  S
Zr169       O171   2.431       .  S
Zr169       O177   2.370       .  S
Zr169       O178   2.374   1_565  S
Zr169       O181   2.367   1_565  S
Zr169       O179   2.368       .  S
O170        H190   0.990       .  S
O170        H195   0.990       .  S
O171        H191   0.990       .  S
Zr172       O173   2.431       .  S
Zr172       O174   2.435       .  S
Zr172       O178   2.376   1_565  S
Zr172       O177   2.373       .  S
Zr172       O182   2.365       .  S
Zr172       O180   2.366   1_565  S
O173        H189   0.990       .  S
O174        H188   0.990       .  S
O174        H198   0.990       .  S
Zr175       O178   2.381       .  S
Zr175       O180   2.379       .  S
Zr175       O181   2.383       .  S
Zr176       O177   2.386       .  S
Zr176       O179   2.376       .  S
Zr176       O182   2.374       .  S
O177        H185   0.966       .  S
O180        H184   0.965       .  S
O181        H186   0.966       .  S
C199        C200   1.419       .  A
C199        C204   1.403       .  A
C199       Br644   1.916       .  S
C200        C449   1.527       .  S
C200        C201   1.430       .  A
C201        C202   1.416       .  A
C201       Br208   1.920       .  S
C202        C203   1.403       .  A
C202       Br207   1.934       .  S
C203        C204   1.398       .  A
C204       Br205   1.930       .  S
Br206       C637   1.916   1_554  S
C209        C210   1.424       .  A
C209        C214   1.405       .  A
C209       Br216   1.941       .  S
C210        C211   1.418       .  A
C211        C212   1.419       .  A
C211       Br218   1.941       .  S
C212        C213   1.430       .  A
C212       Br217   1.922       .  S
C213        C214   1.414       .  A
C214       Br653   1.931       .  S
Br215       C652   1.931       .  S
C219        C220   1.417       .  A
C219        C224   1.418       .  A
C219       Br226   1.937       .  S
C220        C221   1.410       .  A
C221        C222   1.401       .  A
C221       Br228   1.934       .  S
C222        C223   1.419       .  A
C222       Br227   1.929       .  S
C223        C224   1.428       .  A
C224       Br225   1.927       .  S
C229        C230   1.420       .  A
C229        C234   1.401       .  A
C229       Br236   1.922       .  S
C230        C450   1.521   1_554  S
C230        C231   1.427       .  A
C231        C232   1.419       .  A
C231       Br238   1.925       .  S
C232        C233   1.407       .  A
C232       Br237   1.930       .  S
C233        C234   1.399       .  A
C234       Br235   1.927       .  S
C239        C240   1.426       .  A
C239        C244   1.416       .  A
C239       Br246   1.931       .  S
C240        C448   1.503       .  S
C240        C241   1.409       .  A
C241        C242   1.393       .  A
C241       Br686   1.909       .  S
C242        C243   1.396       .  A
C242       Br247   1.930       .  S
C243        C244   1.408       .  A
C244       Br245   1.929       .  S
Br248       C679   1.909       .  S
C249        C250   1.409       .  A
C249        C254   1.411       .  A
C249       Br694   1.923       .  S
C250        C251   1.418       .  A
C251        C252   1.412       .  A
C251       Br258   1.928       .  S
C252        C253   1.424       .  A
C252       Br257   1.941       .  S
C253        C254   1.422       .  A
C254       Br255   1.930       .  S
Br256       C687   1.923       .  S
C259        C260   1.407       .  A
C259        C264   1.411       .  A
C259       Br266   1.927       .  S
C260        C261   1.406       .  A
C261        C262   1.408       .  A
C261       Br268   1.923       .  S
C262        C263   1.416       .  A
C262       Br267   1.923       .  S
C263        C264   1.408       .  A
C264       Br703   1.898       .  S
Br265       C702   1.898   1_554  S
C269        C270   1.429       .  A
C269        C274   1.410       .  A
C269       Br276   1.929       .  S
C270        C271   1.418       .  A
C271        C272   1.409       .  A
C271       Br278   1.930       .  S
C272        C273   1.412       .  A
C272       Br277   1.927       .  S
C273        C447   1.538   1_554  S
C273        C274   1.405       .  A
C274       Br713   1.927   1_554  S
Br275       C712   1.927       .  S
C279        C280   1.405       .  A
C279        C284   1.415       .  A
C279       Br286   1.930       .  S
C280        C281   1.399       .  A
C281        C282   1.401       .  A
C281       Br288   1.928       .  S
C282        C283   1.420       .  A
C282       Br725   1.925       .  S
C283        C446   1.519       .  S
C283        C284   1.427       .  A
C284       Br285   1.921       .  S
Br287       C720   1.925       .  S
C289        C290   1.418       .  A
C289        C294   1.423       .  A
C289       Br296   1.937       .  S
C290        C291   1.419       .  A
C291        C292   1.400       .  A
C291       Br298   1.938       .  S
C292        C293   1.414       .  A
C292       Br735   1.925       .  S
C293        C294   1.432       .  A
C294       Br295   1.918       .  S
Br297       C730   1.925       .  S
C299        C300   1.418       .  A
C299        C304   1.418       .  A
C299       Br306   1.947       .  S
C300        C301   1.412       .  A
C301        C302   1.407       .  A
C301       Br308   1.937       .  S
C302        C303   1.422       .  A
C302       Br307   1.930       .  S
C303        C445   1.534       .  S
C303        C304   1.431       .  A
C304       Br305   1.922       .  S
C309        C310   1.409       .  A
C309        C314   1.419       .  A
C309       Br316   1.929       .  S
C310        C311   1.401       .  A
C311        C312   1.401       .  A
C311       Br318   1.934       .  S
C312        C313   1.417       .  A
C312       Br317   1.916       .  S
C313        C314   1.424       .  A
C314       Br315   1.926       .  S
C319        C320   1.414       .  A
C319        C324   1.405       .  A
C319       Br326   1.928       .  S
C320        C444   1.506   1_554  S
C320        C321   1.420       .  A
C321        C322   1.409       .  A
C321       Br328   1.930       .  S
C322        C323   1.410       .  A
C322       Br327   1.937       .  S
C323        C324   1.412       .  A
C324       Br325   1.934       .  S
C329        C330   1.417       .  A
C329        C334   1.419       .  A
C329       Br336   1.911       .  S
C330        C331   1.409       .  A
C331        C332   1.404       .  A
C331       Br338   1.916       .  S
C332        C333   1.411       .  A
C332       Br337   1.925       .  S
C333        C334   1.412       .  A
C334       Br335   1.929       .  S
C339        C340   1.411       .  A
C339        C344   1.410       .  A
C339       Br346   1.934       .  S
C340        C341   1.411       .  A
C341        C342   1.410       .  A
C341       Br348   1.927       .  S
C342        C343   1.413       .  A
C342       Br347   1.918       .  S
C343        C443   1.510       .  S
C343        C344   1.420       .  A
C344       Br345   1.926       .  S
C349        C350   1.417       .  A
C349        C354   1.411       .  A
C349       Br356   1.912       .  S
C350        C351   1.411       .  A
C351        C352   1.413       .  A
C351       Br358   1.917       .  S
C352        C353   1.414       .  A
C352       Br357   1.927       .  S
C353        C354   1.418       .  A
C354       Br355   1.940       .  S
C359        C360   1.406       .  A
C359        C364   1.418       .  A
C359       Br366   1.933       .  S
C360        C361   1.393       .  A
C361        C362   1.394       .  A
C361       Br368   1.933       .  S
C362        C363   1.424       .  A
C362       Br367   1.924       .  S
C363        C442   1.521       .  S
C363        C364   1.430       .  A
C364       Br365   1.925       .  S
C369        C370   1.417       .  A
C369        C374   1.413       .  A
C369       Br376   1.921       .  S
C370        C371   1.412       .  A
C371        C372   1.401       .  A
C371       Br378   1.927       .  S
C372        C373   1.416       .  A
C372       Br377   1.931       .  S
C373        C374   1.418       .  A
C374       Br375   1.930       .  S
C379        C380   1.421       .  A
C379        C384   1.417       .  A
C379       Br386   1.941       .  S
C380        C381   1.421       .  A
C381        C382   1.407       .  A
C381       Br388   1.939       .  S
C382        C383   1.417       .  A
C382       Br387   1.932       .  S
C383        C441   1.524       .  S
C383        C384   1.425       .  A
C384       Br385   1.929       .  S
C389        C390   1.404       .  A
C389        C394   1.417       .  A
C389       Br396   1.934       .  S
C390        C391   1.395       .  A
C391        C392   1.395       .  A
C391       Br398   1.935       .  S
C392        C393   1.415       .  A
C392       Br835   1.905       .  S
C393        C394   1.432       .  A
C394       Br395   1.920       .  S
Br397       C830   1.905       .  S
C399        C400   1.418       .  A
C399        C404   1.409       .  A
C399       Br406   1.940       .  S
C400        C401   1.419       .  A
C401        C402   1.411       .  A
C401       Br408   1.927       .  S
C402        C403   1.412       .  A
C402       Br845   1.936       .  S
C403        C440   1.503       .  S
C403        C404   1.417       .  A
C404       Br405   1.919       .  S
Br407       C840   1.936       .  S
C409        C410   1.427       .  A
C409        C414   1.419       .  A
C409       Br416   1.923       .  S
C410        C411   1.428       .  A
C411        C412   1.405       .  A
C411       Br418   1.924       .  S
C412        C413   1.404       .  A
C412       Br417   1.936       .  S
C413        C414   1.411       .  A
C414       Br415   1.927       .  S
C419        C420   1.430       .  A
C419        C424   1.417       .  A
C419       Br426   1.916       .  S
C420        C439   1.533       .  S
C420        C421   1.422       .  A
C421        C422   1.404       .  A
C421       Br428   1.920   1_554  S
C422        C423   1.400       .  A
C422       Br427   1.933       .  S
C423        C424   1.404       .  A
C424       Br425   1.935       .  S
C429        C430   1.422       .  A
C429        C434   1.405       .  A
C429       Br436   1.936       .  S
C430        C431   1.421       .  A
C431        C432   1.421       .  A
C431       Br438   1.945       .  S
C432        C433   1.432       .  A
C432       Br437   1.924       .  S
C433        C434   1.410       .  A
C434       Br873   1.925       .  S
Br435       C872   1.925   1_554  S
C439        C871   1.551   1_554  S
C440        C848   1.527       .  S
C441        C831   1.526       .  S
C441        C442   1.386       .  D
C442        C811   1.510       .  S
C443        C788   1.540       .  S
C444        C768   1.537       .  S
C445        C751   1.519       .  S
C445        C446   1.393       .  D
C446        C731   1.536       .  S
C447        C701   1.540       .  S
C448        C688   1.513       .  S
C449        C651   1.532       .  S
C450        C661   1.524       .  S
O451       Zr463   2.475       .  S
O451        C453   1.294       .  A
O452       Zr489   2.413       .  S
O452        C453   1.285       .  A
C453        C771   1.496       .  S
O454       Zr466   2.435   1_455  S
O454        C456   1.287       .  A
O455       Zr490   2.432       .  S
O455        C456   1.286       .  A
C456        C658   1.500       .  S
O457       Zr466   2.425       .  S
O457        C459   1.282       .  A
O458       Zr489   2.448       .  S
O458        C459   1.289       .  A
C459        C868   1.509       .  S
O460       Zr463   2.463   1_455  S
O460        C462   1.292       .  A
O461       Zr490   2.429       .  S
O461        C462   1.288       .  A
C462        C698   1.478       .  S
Zr463       O464   2.429       .  S
Zr463       O465   2.433       .  S
Zr463       O469   2.379       .  S
Zr463       O470   2.374   1_655  S
Zr463       O493   2.379   1_655  S
Zr463       O495   2.371       .  S
O464        H507   0.990       .  S
O465        H506   0.990       .  S
O465        H510   0.990       .  S
Zr466       O467   2.435       .  S
Zr466       O468   2.431       .  S
Zr466       O470   2.364   1_655  S
Zr466       O469   2.371       .  S
Zr466       O494   2.367       .  S
Zr466       O496   2.364   1_655  S
O467        H508   0.990   1_655  S
O467        H511   0.990   1_655  S
O468        H501   0.990       .  S
O469       Zr489   2.384       .  S
O470       Zr490   2.389       .  S
O470        H497   0.965       .  S
O471       Zr483   2.421   1_455  S
O471        C473   1.282       .  A
O472       Zr490   2.468       .  S
O472        C473   1.294       .  A
C473        C708   1.510       .  S
O474       Zr486   2.437       .  S
O474        C476   1.287       .  A
O475       Zr489   2.441       .  S
O475        C476   1.289       .  A
C476        C861   1.476       .  S
O477       Zr486   2.447   1_455  S
O477        C479   1.288       .  A
O478       Zr490   2.419       .  S
O478        C479   1.287       .  A
C479        C671   1.480       .  S
O480       Zr483   2.427       .  S
O480        C482   1.286       .  A
O481       Zr489   2.434       .  S
O481        C482   1.287       .  A
C482        C761   1.490       .  S
Zr483       O484   2.431       .  S
Zr483       O485   2.432       .  S
Zr483       O491   2.370   1_655  S
Zr483       O492   2.360       .  S
Zr483       O495   2.365       .  S
Zr483       O493   2.372   1_655  S
O484        H504   0.990   1_655  S
O484        H509   0.990       .  S
O485        H505   0.990       .  S
Zr486       O487   2.433       .  S
Zr486       O488   2.434       .  S
Zr486       O492   2.372       .  S
Zr486       O491   2.375   1_655  S
Zr486       O496   2.364   1_655  S
Zr486       O494   2.369       .  S
O487        H503   0.990       .  S
O488        H502   0.990   1_655  S
O488        H512   0.990       .  S
Zr489       O492   2.378       .  S
Zr489       O494   2.383       .  S
Zr489       O495   2.387       .  S
Zr490       O491   2.381       .  S
Zr490       O493   2.382       .  S
Zr490       O496   2.382       .  S
O491        H499   0.966       .  S
O494        H498   0.966       .  S
O495        H500   0.966       .  S
O513       Zr525   2.442       .  S
O513        C515   1.289       .  A
O514       Zr551   2.439       .  S
O514        C515   1.289       .  A
C515        C808   1.501       .  S
O516       Zr528   2.431       .  S
O516        C518   1.283       .  A
O517       Zr552   2.454       .  S
O517        C518   1.291       .  A
C518        C728   1.509       .  S
O519       Zr528   2.455       .  S
O519        C521   1.291       .  A
O520       Zr551   2.438       .  S
O520        C521   1.287       .  A
C521        C851   1.507       .  S
O522       Zr525   2.459       .  S
O522        C524   1.290       .  A
O523       Zr552   2.421       .  S
O523        C524   1.283       .  A
C524        C691   1.508       .  S
Zr525       O526   2.432       .  S
Zr525       O527   2.431       .  S
Zr525       O531   2.383       .  S
Zr525       O532   2.368       .  S
Zr525       O555   2.362       .  S
Zr525       O557   2.371       .  S
O526        H569   0.990       .  S
O527        H568   0.989       .  S
O527        H572   0.988       .  S
Zr528       O529   2.431       .  S
Zr528       O530   2.430       .  S
Zr528       O532   2.372       .  S
Zr528       O531   2.362       .  S
Zr528       O556   2.359       .  S
Zr528       O558   2.368       .  S
O529        H570   0.990       .  S
O529        H573   0.990       .  S
O530        H563   0.990       .  S
O531       Zr551   2.385       .  S
O532       Zr552   2.385       .  S
O532        H559   0.966       .  S
O533       Zr545   2.420       .  S
O533        C535   1.282       .  A
O534       Zr552   2.446       .  S
O534        C535   1.291       .  A
C535        C681   1.470       .  S
O536       Zr548   2.459       .  S
O536        C538   1.291       .  A
O537       Zr551   2.425       .  S
O537        C538   1.286       .  A
C538        C838   1.499       .  S
O539       Zr548   2.465       .  S
O539        C541   1.293       .  A
O540       Zr552   2.410       .  S
O540        C541   1.283       .  A
C541        C718   1.483       .  S
O542       Zr545   2.431       .  S
O542        C544   1.285       .  A
O543       Zr551   2.426       .  S
O543        C544   1.287       .  A
C544        C798   1.468       .  S
Zr545       O546   2.433       .  S
Zr545       O547   2.435       .  S
Zr545       O553   2.377       .  S
Zr545       O554   2.373       .  S
Zr545       O557   2.362       .  S
Zr545       O555   2.372       .  S
O546        H566   0.990       .  S
O546        H571   0.990       .  S
O547        H567   0.990       .  S
Zr548       O549   2.430       .  S
Zr548       O550   2.432       .  S
Zr548       O554   2.381       .  S
Zr548       O553   2.367       .  S
Zr548       O558   2.363       .  S
Zr548       O556   2.367       .  S
O549        H565   0.990       .  S
O550        H564   0.990       .  S
O550        H574   0.990       .  S
Zr551       O554   2.386       .  S
Zr551       O556   2.385       .  S
Zr551       O557   2.382       .  S
Zr552       O553   2.389       .  S
Zr552       O555   2.372       .  S
Zr552       O558   2.379       .  S
O553        H561   0.966       .  S
O556        H560   0.965       .  S
O557        H562   0.965       .  S
O575       Zr587   2.472   1_545  S
O575        C577   1.294       .  A
O576       Zr613   2.416       .  S
O576        C577   1.284       .  A
C577        C791   1.500       .  S
O578       Zr590   2.423       .  S
O578        C580   1.280       .  A
O579       Zr614   2.447       .  S
O579        C580   1.289       .  A
C580        C648   1.509       .  S
O581       Zr590   2.428   1_545  S
O581        C583   1.284       .  A
O582       Zr613   2.425       .  S
O582        C583   1.286       .  A
C583        C828   1.466       .  S
O584       Zr587   2.464       .  S
O584        C586   1.292       .  A
O585       Zr614   2.410       .  S
O585        C586   1.285       .  A
C586        C748   1.480       .  S
Zr587       O588   2.432       .  S
Zr587       O589   2.432       .  S
Zr587       O593   2.376   1_565  S
Zr587       O594   2.381       .  S
Zr587       O617   2.370       .  S
Zr587       O619   2.378   1_565  S
O588        H631   0.990   1_565  S
O589        H630   0.989   1_565  S
O589        H634   0.990       .  S
Zr590       O591   2.432       .  S
Zr590       O592   2.434       .  S
Zr590       O594   2.370       .  S
Zr590       O593   2.370   1_565  S
Zr590       O618   2.356   1_565  S
Zr590       O620   2.365       .  S
O591        H632   0.990       .  S
O591        H635   0.990       .  S
O592        H625   0.990       .  S
O593       Zr613   2.381       .  S
O594       Zr614   2.385       .  S
O594        H621   0.966       .  S
O595       Zr607   2.444       .  S
O595        C597   1.288       .  A
O596       Zr614   2.424       .  S
O596        C597   1.284       .  A
C597        C738   1.505       .  S
O598       Zr610   2.445   1_545  S
O598        C600   1.286       .  A
O599       Zr613   2.435       .  S
O599        C600   1.287       .  A
C600        C818   1.512       .  S
O601       Zr610   2.447       .  S
O601        C603   1.288       .  A
O602       Zr614   2.426       .  S
O602        C603   1.287       .  A
C603        C641   1.475       .  S
O604       Zr607   2.445   1_545  S
O604        C606   1.289       .  A
O605       Zr613   2.427       .  S
O605        C606   1.287       .  A
C606        C778   1.493       .  S
Zr607       O608   2.434       .  S
Zr607       O609   2.431       .  S
Zr607       O615   2.370       .  S
Zr607       O616   2.374   1_565  S
Zr607       O619   2.367   1_565  S
Zr607       O617   2.368       .  S
O608        H628   0.990       .  S
O608        H633   0.990       .  S
O609        H629   0.990       .  S
Zr610       O611   2.431       .  S
Zr610       O612   2.435       .  S
Zr610       O616   2.376   1_565  S
Zr610       O615   2.373       .  S
Zr610       O620   2.365       .  S
Zr610       O618   2.366   1_565  S
O611        H627   0.990       .  S
O612        H626   0.990       .  S
O612        H636   0.990       .  S
Zr613       O616   2.381       .  S
Zr613       O618   2.379       .  S
Zr613       O619   2.383       .  S
Zr614       O615   2.386       .  S
Zr614       O617   2.376       .  S
Zr614       O620   2.374       .  S
O615        H623   0.966       .  S
O618        H622   0.965       .  S
O619        H624   0.966       .  S
C637        C638   1.419       .  A
C637        C642   1.403       .  A
C638        C639   1.430       .  A
C639        C640   1.416       .  A
C639       Br646   1.920       .  S
C640        C641   1.403       .  A
C640       Br645   1.934       .  S
C641        C642   1.398       .  A
C642       Br643   1.930       .  S
C647        C648   1.424       .  A
C647        C652   1.405       .  A
C647       Br654   1.941       .  S
C648        C649   1.418       .  A
C649        C650   1.419       .  A
C649       Br656   1.941       .  S
C650        C651   1.430       .  A
C650       Br655   1.922       .  S
C651        C652   1.414       .  A
C657        C658   1.417       .  A
C657        C662   1.418       .  A
C657       Br664   1.937       .  S
C658        C659   1.410       .  A
C659        C660   1.401       .  A
C659       Br666   1.934       .  S
C660        C661   1.419       .  A
C660       Br665   1.929       .  S
C661        C662   1.428       .  A
C662       Br663   1.927       .  S
C667        C668   1.420       .  A
C667        C672   1.401       .  A
C667       Br674   1.922       .  S
C668        C669   1.427       .  A
C669        C670   1.419       .  A
C669       Br676   1.925       .  S
C670        C671   1.407       .  A
C670       Br675   1.930       .  S
C671        C672   1.399       .  A
C672       Br673   1.927       .  S
C677        C678   1.426       .  A
C677        C682   1.416       .  A
C677       Br684   1.931       .  S
C678        C679   1.409       .  A
C679        C680   1.393       .  A
C680        C681   1.396       .  A
C680       Br685   1.930       .  S
C681        C682   1.408       .  A
C682       Br683   1.929       .  S
C687        C688   1.409       .  A
C687        C692   1.411       .  A
C688        C689   1.418       .  A
C689        C690   1.412       .  A
C689       Br696   1.928       .  S
C690        C691   1.424       .  A
C690       Br695   1.941       .  S
C691        C692   1.422       .  A
C692       Br693   1.930       .  S
C697        C698   1.407       .  A
C697        C702   1.411       .  A
C697       Br704   1.927       .  S
C698        C699   1.406       .  A
C699        C700   1.408       .  A
C699       Br706   1.923       .  S
C700        C701   1.416       .  A
C700       Br705   1.923       .  S
C701        C702   1.408       .  A
C707        C708   1.429       .  A
C707        C712   1.410       .  A
C707       Br714   1.929       .  S
C708        C709   1.418       .  A
C709        C710   1.409       .  A
C709       Br716   1.930       .  S
C710        C711   1.412       .  A
C710       Br715   1.927       .  S
C711        C712   1.405       .  A
C717        C718   1.405       .  A
C717        C722   1.415       .  A
C717       Br724   1.930       .  S
C718        C719   1.399       .  A
C719        C720   1.401       .  A
C719       Br726   1.928       .  S
C720        C721   1.420       .  A
C721        C722   1.427       .  A
C722       Br723   1.921       .  S
C727        C728   1.418       .  A
C727        C732   1.423       .  A
C727       Br734   1.937       .  S
C728        C729   1.419       .  A
C729        C730   1.400       .  A
C729       Br736   1.938       .  S
C730        C731   1.414       .  A
C731        C732   1.432       .  A
C732       Br733   1.918       .  S
C737        C738   1.418       .  A
C737        C742   1.418       .  A
C737       Br744   1.947       .  S
C738        C739   1.412       .  A
C739        C740   1.407       .  A
C739       Br746   1.937       .  S
C740        C741   1.422       .  A
C740       Br745   1.930       .  S
C741        C742   1.431       .  A
C742       Br743   1.922       .  S
C747        C748   1.409       .  A
C747        C752   1.419       .  A
C747       Br754   1.929       .  S
C748        C749   1.401       .  A
C749        C750   1.401       .  A
C749       Br756   1.934       .  S
C750        C751   1.417       .  A
C750       Br755   1.916       .  S
C751        C752   1.424       .  A
C752       Br753   1.926       .  S
C757        C758   1.414       .  A
C757        C762   1.405       .  A
C757       Br764   1.928       .  S
C758        C759   1.420       .  A
C759        C760   1.409       .  A
C759       Br766   1.930       .  S
C760        C761   1.410       .  A
C760       Br765   1.937       .  S
C761        C762   1.412       .  A
C762       Br763   1.934       .  S
C767        C768   1.417       .  A
C767        C772   1.419       .  A
C767       Br774   1.911       .  S
C768        C769   1.409       .  A
C769        C770   1.404       .  A
C769       Br776   1.916       .  S
C770        C771   1.411       .  A
C770       Br775   1.925       .  S
C771        C772   1.412       .  A
C772       Br773   1.929       .  S
C777        C778   1.411       .  A
C777        C782   1.410       .  A
C777       Br784   1.934       .  S
C778        C779   1.411       .  A
C779        C780   1.410       .  A
C779       Br786   1.927       .  S
C780        C781   1.413       .  A
C780       Br785   1.918       .  S
C781        C782   1.420       .  A
C782       Br783   1.926       .  S
C787        C788   1.417       .  A
C787        C792   1.411       .  A
C787       Br794   1.912       .  S
C788        C789   1.411       .  A
C789        C790   1.413       .  A
C789       Br796   1.917       .  S
C790        C791   1.414       .  A
C790       Br795   1.927       .  S
C791        C792   1.418       .  A
C792       Br793   1.940       .  S
C797        C798   1.406       .  A
C797        C802   1.418       .  A
C797       Br804   1.933       .  S
C798        C799   1.393       .  A
C799        C800   1.394       .  A
C799       Br806   1.933       .  S
C800        C801   1.424       .  A
C800       Br805   1.924       .  S
C801        C802   1.430       .  A
C802       Br803   1.925       .  S
C807        C808   1.417       .  A
C807        C812   1.413       .  A
C807       Br814   1.921       .  S
C808        C809   1.412       .  A
C809        C810   1.401       .  A
C809       Br816   1.927       .  S
C810        C811   1.416       .  A
C810       Br815   1.931       .  S
C811        C812   1.418       .  A
C812       Br813   1.930       .  S
C817        C818   1.421       .  A
C817        C822   1.417       .  A
C817       Br824   1.941       .  S
C818        C819   1.421       .  A
C819        C820   1.407       .  A
C819       Br826   1.939       .  S
C820        C821   1.417       .  A
C820       Br825   1.932       .  S
C821        C822   1.425       .  A
C822       Br823   1.929       .  S
C827        C828   1.404       .  A
C827        C832   1.417       .  A
C827       Br834   1.934       .  S
C828        C829   1.395       .  A
C829        C830   1.395       .  A
C829       Br836   1.935       .  S
C830        C831   1.415       .  A
C831        C832   1.432       .  A
C832       Br833   1.920       .  S
C837        C838   1.418       .  A
C837        C842   1.409       .  A
C837       Br844   1.940       .  S
C838        C839   1.419       .  A
C839        C840   1.411       .  A
C839       Br846   1.927       .  S
C840        C841   1.412       .  A
C841        C842   1.417       .  A
C842       Br843   1.919       .  S
C847        C848   1.427       .  A
C847        C852   1.419       .  A
C847       Br854   1.923       .  S
C848        C849   1.428       .  A
C849        C850   1.405       .  A
C849       Br856   1.924       .  S
C850        C851   1.404       .  A
C850       Br855   1.936       .  S
C851        C852   1.411       .  A
C852       Br853   1.927       .  S
C857        C858   1.430       .  A
C857        C862   1.417       .  A
C857       Br864   1.916       .  S
C858        C859   1.422       .  A
C859        C860   1.404       .  A
C859       Br866   1.920       .  S
C860        C861   1.400       .  A
C860       Br865   1.933       .  S
C861        C862   1.404       .  A
C862       Br863   1.935       .  S
C867        C868   1.422       .  A
C867        C872   1.405       .  A
C867       Br874   1.936       .  S
C868        C869   1.421       .  A
C869        C870   1.421       .  A
C869       Br876   1.945       .  S
C870        C871   1.432       .  A
C870       Br875   1.924       .  S
C871        C872   1.410       .  A
