geometry optimzed in LAMMPS
_audit_creation_date              2020-11-30 
_audit_creation_method            'lammps2cif' 
_symmetry_space_group_name_H-M    'P1' 
_symmetry_Int_Tables_number       1 
_symmetry_cell_setting            triclinic 
loop_ 
_symmetry_equiv_pos_as_xyz 
  x,y,z 
_cell_length_a                    43.74605517042074 
_cell_length_b                    43.74997187970292 
_cell_length_c                    43.510230664671425 
_cell_angle_alpha                 89.72228238706792 
_cell_angle_beta                  89.78495576566263 
_cell_angle_gamma                 90.05274782141943 
loop_ 
_atom_site_label 
_atom_site_type_symbol 
_atom_site_fract_x 
_atom_site_fract_y 
_atom_site_fract_z 
_atom_site_charge 
O1          O  0.47378799  0.99839528  0.29249958    -0.71700
O2          O  0.47672990  0.50012160  0.20533678    -0.71910
O3          O  0.47647987  0.45594917  0.24829952    -0.71770
O4          O  0.47408521  0.04260655  0.24955452    -0.71780
O5          O  0.02345570  0.04395856  0.24965207    -0.71740
O6          O  0.02575784  0.45730588  0.25132327    -0.71760
O7          O  0.02611150  0.99999949  0.20688064    -0.71700
O8          O  0.02308742  0.50121904  0.29406562    -0.71890
V9          V  0.47620035  0.49929829  0.24895284     1.35240
V10         V  0.02367564  0.50060512  0.25044273     1.35170
C11         C  0.99786074  0.49978548  0.30834479     0.77380
C12         C  0.00198009  0.50011396  0.19104619     0.77600
C13         C  0.50157034  0.44164479  0.24980697     0.77470
C14         C  0.49832811  0.05827739  0.24959272     0.77430
O15         O  0.02314377  0.25018081  0.29482599    -0.71700
O16         O  0.02621681  0.25109795  0.20765595    -0.71910
O17         O  0.02351217  0.29399742  0.25145653    -0.71770
O18         O  0.02582695  0.20732791  0.25099303    -0.71780
O19         O  0.47647885  0.20599631  0.24977413    -0.71740
O20         O  0.47418521  0.29265853  0.24941992    -0.71760
O21         O  0.47688746  0.24940014  0.20602602    -0.71700
O22         O  0.47379492  0.24922088  0.29320718    -0.71890
V23         V  0.02374119  0.25063723  0.25120269     1.35240
V24         V  0.47626928  0.24935207  0.24964809     1.35170
C25         C  0.49788405  0.24953155  0.30909451     0.77540
C26         C  0.50214713  0.25028489  0.19176619     0.77600
C27         C  0.49840493  0.30831480  0.25044255     0.77470
C28         C  0.50159209  0.19166777  0.25035021     0.77430
O29         O  0.22437171  0.50092435  0.29277651    -0.71700
O30         O  0.22618255  0.50099874  0.20535507    -0.71910
O31         O  0.22328577  0.45765150  0.24897831    -0.71770
O32         O  0.22729094  0.04433428  0.24921139    -0.71780
O33         O  0.27667988  0.04244703  0.24978610    -0.71740
O34         O  0.27264843  0.45564618  0.25045562    -0.71760
O35         O  0.27563996  0.49863601  0.20639617    -0.71700
O36         O  0.27386846  0.49943262  0.29376524    -0.71890
V37         V  0.22623546  0.50097019  0.24910326     1.35240
V38         V  0.27376576  0.49904383  0.25005030     1.35170
C39         C  0.24876161  0.50030914  0.30824769     0.77540
C40         C  0.25129220  0.49972181  0.19089128     0.77600
C41         C  0.24728684  0.44167205  0.24956084     0.77470
C42         C  0.25260906  0.05837931  0.24988938     0.77430
O43         O  0.27435412  0.25104174  0.29368097    -0.71700
O44         O  0.27353935  0.24889613  0.20640866    -0.71910
O45         O  0.27440382  0.29309098  0.24883728    -0.71770
O46         O  0.27347326  0.20649199  0.25145152    -0.71780
O47         O  0.22403856  0.20691048  0.25081657    -0.71740
O48         O  0.22500458  0.29376195  0.25039579    -0.71760
O49         O  0.22400268  0.25060235  0.20706942    -0.71700
O50         O  0.22465621  0.25033771  0.29422797    -0.71890
V51         V  0.27299202  0.24984284  0.25008706     1.35240
V52         V  0.22536697  0.25034641  0.25062723     1.35170
C53         C  0.24959676  0.25112815  0.30870498     0.77540
C54         C  0.24860239  0.25022554  0.19182505     0.77600
C55         C  0.24997592  0.30839199  0.24917933     0.77470
C56         C  0.24858864  0.19172155  0.25163191     0.77430
O57         O  0.04332069  0.02232603  0.49902800    -0.71700
O58         O  0.45638530  0.02220574  0.99998697    -0.71910
O59         O  0.00026177  0.02277812  0.04304633    -0.71770
O60         O  0.49948323  0.02248861  0.45596177    -0.71780
O61         O  0.00085106  0.47280863  0.45622231    -0.71740
O62         O  0.49888428  0.47309962  0.04356483    -0.71760
O63         O  0.45664291  0.47281466  0.49913606    -0.71700
O64         O  0.04308931  0.47294286  0.00068191    -0.71890
V65         V  0.99985814  0.02152117  0.99951098     1.35240
V66         V  0.49986804  0.47387860  0.99989159     1.35170
C67         C  0.05819438  0.99748855  0.99990515     0.77540
C68         C  0.44152139  0.99732484  0.99951986     0.77600
C69         C  0.99943583  0.99805002  0.05806428     0.77470
C70         C  0.00031503  0.99767290  0.44133540     0.77430
O71         O  0.45666200  0.27221139  0.99985450    -0.71700
O72         O  0.04366494  0.27220738  0.50046599    -0.71910
O73         O  0.50059873  0.27230445  0.45662529    -0.71770
O74         O  0.49972347  0.27291511  0.04367923    -0.71780
O75         O  0.49996313  0.22321414  0.04439172    -0.71740
O76         O  0.00018843  0.22260106  0.45704746    -0.71760
O77         O  0.04328830  0.22279964  0.00063369    -0.71700
O78         O  0.45690054  0.22281507  0.50074831    -0.71890
V79         V  0.50015982  0.27148304  0.00016338     1.35240
V80         V  0.50009198  0.22383127  0.50070353     1.35170
C81         C  0.44179355  0.24731803  0.50022209     0.77540
C82         C  0.05846011  0.24729998  0.00064189     0.77600
C83         C  0.50050319  0.24742565  0.44209323     0.77470
C84         C  0.49970710  0.24823380  0.05878114     0.77430
O85         O  0.25083762  0.02851532  0.45680751    -0.71700
O86         O  0.24928754  0.02457026  0.04412135    -0.71910
O87         O  0.29315177  0.02647175  0.50106511    -0.71770
O88         O  0.20670931  0.02679649  0.00000219    -0.71780
O89         O  0.20627076  0.47743870  0.49823000    -0.71740
O90         O  0.29319657  0.47712936  0.99902323    -0.71760
O91         O  0.24892125  0.47497190  0.04214536    -0.71700
O92         O  0.25018668  0.47890720  0.45512218    -0.71890
V93         V  0.24996182  0.02562589  0.50046679     1.35240
V94         V  0.24968962  0.47804533  0.99864765     1.35170
C95         C  0.25081254  0.50426141  0.44114251     0.77540
C96         C  0.24869939  0.49907660  0.05794124     0.77600
C97         C  0.30816879  0.50192863  0.00014686     0.77470
C98         C  0.19150190  0.50231810  0.99912291     0.77430
O99         O  0.29365895  0.22649511  0.00054148    -0.71700
O100        O  0.20664173  0.22636375  0.50106671    -0.71910
O101        O  0.25006294  0.22554568  0.45745567    -0.71770
O102        O  0.25047554  0.22646964  0.04428308    -0.71780
O103        O  0.25043676  0.27607293  0.04382154    -0.71740
O104        O  0.24974897  0.27492790  0.45618105    -0.71760
O105        O  0.20693610  0.27575368  0.00048656    -0.71700
O106        O  0.29330674  0.27587142  0.49954455    -0.71890
V107        V  0.25017901  0.22716391  0.50083302     1.35240
V108        V  0.25011257  0.27472225  0.50002713     1.35170
C109        C  0.30847410  0.25140891  0.49996034     0.77540
C110        C  0.19179788  0.25124929  0.50068104     0.77600
C111        C  0.24969551  0.24980477  0.44175734     0.77470
C112        C  0.25094665  0.25125682  0.05891469     0.77430
C113        C  0.39282921  0.27575391  0.49959909    -0.05700
C114        C  0.40761449  0.24723491  0.50007447     0.00230
C115        C  0.38945699  0.22015211  0.00029837    -0.08340
C116        C  0.35743672  0.22302436  0.00036105    -0.05720
C117        C  0.34265194  0.25153378  0.49987739     0.00220
C118        C  0.36080040  0.27861564  0.49935103    -0.08250
C119        C  0.34707951  0.31061129  0.49846265     0.62130
H120        H  0.40673588  0.29620330  0.49936410     0.12820
H121        H  0.34352755  0.20257829  0.00071582     0.12830
C122        C  0.40313191  0.18812344  0.00027143     0.62360
F123        F  0.36925957  0.33321929  0.99779481    -0.22810
F124        F  0.32933421  0.31533189  0.02439209    -0.20140
F125        F  0.32949275  0.31411651  0.47231792    -0.19810
F126        F  0.42064263  0.18375789  0.02631817    -0.19860
F127        F  0.42093356  0.18416916  0.47424655    -0.20190
F128        F  0.38092117  0.16554371  0.50017697    -0.22860
C129        C  0.14271678  0.22311350  0.00429638    -0.05700
C130        C  0.15761668  0.25136570  0.50053582     0.00230
C131        C  0.13957781  0.27821755  0.49654982    -0.08340
C132        C  0.10753178  0.27542665  0.49676707    -0.05720
C133        C  0.09263583  0.24718232  0.00064075     0.00220
C134        C  0.11067440  0.22031394  0.00440317    -0.08250
C135        C  0.09679883  0.18862435  0.00871232     0.62130
H136        H  0.15655060  0.20284274  0.00725092     0.12820
H137        H  0.09369456  0.29568949  0.49376891     0.12830
C138        C  0.15344677  0.30986576  0.49182373     0.62360
F139        F  0.11884807  0.16631003  0.01290432    -0.22810
F140        F  0.08016784  0.18076681  0.48294231    -0.20140
F141        F  0.07808376  0.18826566  0.03441767    -0.19810
F142        F  0.17223059  0.30987889  0.46616722    -0.19860
F143        F  0.17000793  0.31811314  0.01751482    -0.20190
F144        F  0.13139312  0.33210186  0.48723007    -0.22860
C145        C  0.35705133  0.47336804  0.49818704    -0.05700
C146        C  0.34236231  0.50186765  0.00016943     0.00230
C147        C  0.36062401  0.02881152  0.00187682    -0.08340
C148        C  0.39263974  0.02582294  0.00161910    -0.05720
C149        C  0.40733067  0.49732813  0.99960611     0.00220
C150        C  0.38907721  0.47039743  0.49777062    -0.08250
C151        C  0.40268299  0.43846136  0.49518093     0.62130
H152        H  0.34306800  0.45302512  0.49685174     0.12820
H153        H  0.40661693  0.04616416  0.00302198     0.12830
C154        C  0.34704722  0.06080459  0.00398028     0.62360
F155        F  0.38042227  0.41604409  0.99309383    -0.22810
F156        F  0.42001638  0.43196191  0.02091143    -0.20140
F157        F  0.42065345  0.43659469  0.46902421    -0.19810
F158        F  0.32920119  0.06314317  0.03018272    -0.19860
F159        F  0.32960920  0.06685965  0.47820606    -0.20190
F160        F  0.36932330  0.08325317  0.50556267    -0.22860
C161        C  0.10706512  0.02619331  0.99955032    -0.05700
C162        C  0.09237478  0.49758139  0.99992909     0.00230
C163        C  0.11062519  0.47061127  0.50032637    -0.08340
C164        C  0.14263221  0.47367169  0.49985546    -0.05720
C165        C  0.15732208  0.50227628  0.99938112     0.00220
C166        C  0.13908520  0.02924325  0.99946363    -0.08250
C167        C  0.15271994  0.06130000  0.99953508     0.62130
H168        H  0.09309446  0.04657225  0.99942406     0.12820
H169        H  0.15660419  0.45329510  0.50003015     0.12830
C170        C  0.09706249  0.43852235  0.50146583     0.62360
F171        F  0.13047902  0.08381001  0.49949014    -0.22810
F172        F  0.17057873  0.06563412  0.47356719    -0.20140
F173        F  0.17017894  0.06533422  0.02565754    -0.19810
F174        F  0.07924403  0.43354465  0.47578840    -0.19860
F175        F  0.07959025  0.43499948  0.02781635    -0.20190
F176        F  0.11935251  0.41606570  0.00195171    -0.22860
C177        C  0.23031766  0.26968503  0.10829981    -0.05700
C178        C  0.25139075  0.25109704  0.09287147     0.00230
C179        C  0.27193847  0.23268656  0.10999269    -0.08340
C180        C  0.27023007  0.23328067  0.14226195    -0.05720
C181        C  0.24848577  0.25110859  0.15776720     0.00220
C182        C  0.22820900  0.26987076  0.14058384    -0.08250
C183        C  0.20482256  0.29046986  0.15600410     0.62130
H184        H  0.21491506  0.28356569  0.09469744     0.12820
H185        H  0.28562510  0.21928064  0.15574273     0.12830
C186        C  0.29607697  0.21305610  0.09443286     0.62360
F187        F  0.19029820  0.30939354  0.13506089    -0.22810
F188        F  0.21906586  0.30883002  0.17744189    -0.20140
F189        F  0.18266288  0.27287616  0.17036260    -0.19810
F190        F  0.31297838  0.23067064  0.07405849    -0.19860
F191        F  0.28225090  0.18940179  0.07875379    -0.20190
F192        F  0.31611974  0.20031420  0.11544857    -0.22860
C193        C  0.24438510  0.22379131  0.35776505    -0.05700
C194        C  0.24973088  0.25138866  0.34244744     0.00230
C195        C  0.25469550  0.27838581  0.35927939    -0.08340
C196        C  0.25448418  0.27675724  0.39156630    -0.05720
C197        C  0.24944476  0.24901102  0.40741739     0.00220
C198        C  0.24420967  0.22183134  0.39004996    -0.08250
C199        C  0.23826164  0.19075758  0.40482346     0.62130
H200        H  0.24055864  0.20361052  0.34396442     0.12820
H201        H  0.25839726  0.29735914  0.40464663     0.12830
C202        C  0.25962670  0.30877719  0.34300746     0.62360
F203        F  0.23221071  0.16841485  0.38322528    -0.22810
F204        F  0.21315715  0.19241606  0.42417452    -0.20140
F205        F  0.26371624  0.18149509  0.42116623    -0.19810
F206        F  0.23457564  0.31536386  0.32484251    -0.19860
F207        F  0.28545444  0.30725548  0.32466191    -0.20190
F208        F  0.26345222  0.33253117  0.36355235    -0.22860
C209        C  0.22797357  0.48366231  0.14159718    -0.05700
C210        C  0.25183993  0.49903163  0.15668817     0.00230
C211        C  0.27469572  0.01405351  0.13885335    -0.08340
C212        C  0.27277838  0.01307652  0.10666109    -0.05720
C213        C  0.24905309  0.49774602  0.09178826     0.00220
C214        C  0.22616584  0.48270543  0.10928375    -0.08250
C215        C  0.19942754  0.46678381  0.09391926     0.62130
H216        H  0.21065303  0.47234240  0.15539554     0.12820
H217        H  0.28987827  0.02447948  0.09262980     0.12830
C218        C  0.29989306  0.03278016  0.15342484     0.62360
F219        F  0.17850413  0.45569767  0.11518006    -0.22810
F220        F  0.20985473  0.44237553  0.07677157    -0.20140
F221        F  0.18439868  0.48714666  0.07482372    -0.19810
F222        F  0.31928203  0.01403979  0.16999764    -0.19860
F223        F  0.28680967  0.05422678  0.17253437    -0.20190
F224        F  0.31738050  0.04822737  0.13176290    -0.22860
C225        C  0.27179413  0.01760239  0.35721108    -0.05700
C226        C  0.24827410  0.50142179  0.34241836     0.00230
C227        C  0.22575387  0.48623381  0.36051880    -0.08340
C228        C  0.22715847  0.48861224  0.39267022    -0.05720
C229        C  0.25040151  0.50499073  0.40725903     0.00220
C230        C  0.27341365  0.01945902  0.38948605    -0.08250
C231        C  0.30014347  0.03561749  0.40457210     0.62130
H232        H  0.28902695  0.02881646  0.34321461     0.12820
H233        H  0.21018581  0.47727020  0.40690437     0.12830
C234        C  0.20171183  0.46569261  0.34637752     0.62360
F235        F  0.32139238  0.04576805  0.38317196    -0.22810
F236        F  0.31479097  0.01574983  0.42448832    -0.20140
F237        F  0.28974232  0.06065782  0.42077860    -0.19810
F238        F  0.21610741  0.44410043  0.32836680    -0.19860
F239        F  0.18167857  0.48270618  0.32875410    -0.20190
F240        F  0.18466127  0.45031831  0.36844301    -0.22860
C241        C  0.27431449  0.39241588  0.24327001    -0.05700
C242        C  0.24645497  0.40750597  0.24881291     0.00230
C243        C  0.21952255  0.38963603  0.25313891    -0.08340
C244        C  0.22219765  0.35756731  0.25356664    -0.05720
C245        C  0.25015838  0.34252998  0.24845612     0.00220
C246        C  0.27671405  0.36038877  0.24230765    -0.08250
C247        C  0.30750863  0.34632129  0.23409991     0.62130
H248        H  0.29457419  0.40608134  0.23927929     0.12820
H249        H  0.20201543  0.34382624  0.25768381     0.12830
C250        C  0.18784522  0.40363435  0.25671496     0.62360
F251        F  0.32907304  0.36823210  0.22625387    -0.22810
F252        F  0.30429317  0.32717728  0.20908503    -0.20140
F253        F  0.31878415  0.33007563  0.25893168    -0.19810
F254        F  0.18048637  0.41994404  0.23047044    -0.19860
F255        F  0.18701856  0.42275063  0.28181159    -0.20190
F256        F  0.16539880  0.38167740  0.26110680    -0.22860
C257        C  0.22527115  0.10735644  0.25740293    -0.05700
C258        C  0.25320541  0.09256517  0.25127973     0.00230
C259        C  0.27996477  0.11075307  0.24727035    -0.08340
C260        C  0.27692505  0.14281045  0.24702129    -0.05720
C261        C  0.24881900  0.15754316  0.25237227     0.00220
C262        C  0.22261899  0.13935831  0.25891996    -0.08250
C263        C  0.19204335  0.15308825  0.26834158     0.62130
H264        H  0.20515290  0.09349305  0.26143985     0.12820
H265        H  0.29692713  0.15678432  0.24279849     0.12830
C266        C  0.31181787  0.09711794  0.24388441     0.62360
F267        F  0.17114319  0.13092840  0.27726139    -0.22810
F268        F  0.17952902  0.16903633  0.24393757    -0.20140
F269        F  0.19610116  0.17245763  0.29305398    -0.19810
F270        F  0.31327117  0.07880769  0.21823515    -0.19860
F271        F  0.31884098  0.08005494  0.26973960    -0.20190
F272        F  0.33415270  0.11937227  0.24062941    -0.22860
C273        C  0.47458108  0.24905423  0.14200783    -0.05700
C274        C  0.50291272  0.25017497  0.15739671     0.00230
C275        C  0.03039548  0.25105304  0.13955118    -0.08340
C276        C  0.02815877  0.25017676  0.10728517    -0.05720
C277        C  0.49990655  0.24875490  0.09249859     0.00220
C278        C  0.47263592  0.24852271  0.10980057    -0.08250
C279        C  0.44170140  0.24788037  0.09408069     0.62130
H280        H  0.45367574  0.24863887  0.15537087     0.12820
H281        H  0.04856557  0.25062832  0.09310579     0.12830
C282        C  0.06204132  0.25297967  0.15382849     0.62360
F283        F  0.41779669  0.24765130  0.11502565    -0.22810
F284        F  0.43940186  0.22194947  0.07621315    -0.20140
F285        F  0.43858756  0.27344322  0.07552459    -0.19810
F286        F  0.06727779  0.22747066  0.17196049    -0.19860
F287        F  0.06433691  0.27918371  0.17135177    -0.20190
F288        F  0.08496854  0.25416946  0.13181500    -0.22860
C289        C  0.47196962  0.24750453  0.39359995    -0.05700
C290        C  0.50026145  0.24752303  0.40837861     0.00230
C291        C  0.02750845  0.24849683  0.39107039    -0.08340
C292        C  0.02552296  0.24908918  0.35885500    -0.05720
C293        C  0.49715564  0.24900365  0.34347131     0.00220
C294        C  0.46967529  0.24835311  0.36133041    -0.08250
C295        C  0.43796453  0.24868642  0.34706796     0.62130
H296        H  0.45157403  0.24698084  0.40779347     0.12820
H297        H  0.04641946  0.24968522  0.34548379     0.12830
C298        C  0.05845146  0.24894203  0.40680501     0.62360
F299        F  0.41502097  0.24839234  0.36908948    -0.22810
F300        F  0.43406745  0.22311394  0.32891666    -0.20140
F301        F  0.43427938  0.27490298  0.32957073    -0.19810
F302        F  0.06170823  0.22297767  0.42475193    -0.19860
F303        F  0.06064357  0.27447131  0.42530261    -0.20190
F304        F  0.08233699  0.24979375  0.38585292    -0.22860
C305        C  0.47474358  0.49471497  0.14142625    -0.05700
C306        C  0.00266524  0.99988677  0.15670274     0.00230
C307        C  0.02964825  0.00489046  0.13879404    -0.08340
C308        C  0.02743433  0.00402494  0.10652550    -0.05720
C309        C  0.99965373  0.99843820  0.09180662     0.00220
C310        C  0.47277070  0.49408294  0.10921591    -0.08250
C311        C  0.44212028  0.48941863  0.09362254     0.62130
H312        H  0.45420531  0.49109269  0.15489976     0.12820
H313        H  0.04752286  0.00756133  0.09230670     0.12830
C314        C  0.06067559  0.01139711  0.15305210     0.62360
F315        F  0.41849572  0.48631410  0.11467224    -0.22810
F316        F  0.44303301  0.46330138  0.07589275    -0.20140
F317        F  0.43574930  0.01428774  0.07496610    -0.19810
F318        F  0.07022905  0.48632852  0.16995162    -0.19860
F319        F  0.05877965  0.03677907  0.17181136    -0.20190
F320        F  0.08286611  0.01733778  0.13102962    -0.22860
C321        C  0.47204062  0.00155160  0.39280522    -0.05700
C322        C  0.00010672  0.99788794  0.40759430     0.00230
C323        C  0.02724552  0.49544576  0.39025199    -0.08340
C324        C  0.02530317  0.49610576  0.35803852    -0.05720
C325        C  0.99713155  0.99941636  0.34268873     0.00220
C326        C  0.46983588  0.00244389  0.36053138    -0.08250
C327        C  0.43846696  0.00692317  0.34621152     0.62130
H328        H  0.45174503  0.00366116  0.40697858     0.12820
H329        H  0.04605845  0.49392483  0.34462378     0.12830
C330        C  0.05806565  0.49246734  0.40591840     0.62360
F331        F  0.41588658  0.01111021  0.36818520    -0.22810
F332        F  0.43064472  0.48142014  0.32928732    -0.20140
F333        F  0.43869241  0.03255952  0.32746956    -0.19810
F334        F  0.05859992  0.46605885  0.42345751    -0.19860
F335        F  0.06290544  0.01737000  0.42476678    -0.20190
F336        F  0.08189962  0.49113568  0.38494187    -0.22860
C337        C  0.02639444  0.35755472  0.24802235    -0.05700
C338        C  0.49801889  0.34249055  0.25027285     0.00230
C339        C  0.47092099  0.36037269  0.25237615    -0.08340
C340        C  0.47359473  0.39242019  0.25220316    -0.05720
C341        C  0.50196688  0.40747853  0.24997423     0.00220
C342        C  0.02906042  0.38960656  0.24779751    -0.08250
C343        C  0.06081830  0.40369121  0.24503085     0.62130
H344        H  0.04689667  0.34386193  0.24634673     0.12820
H345        H  0.45309970  0.40612103  0.25390156     0.12830
C346        C  0.43913885  0.34631495  0.25495498     0.62360
F347        F  0.08345108  0.38178089  0.24200869    -0.22810
F348        F  0.06729619  0.42042975  0.27110613    -0.20140
F349        F  0.06228412  0.42238292  0.21932552    -0.19810
F350        F  0.43745468  0.32777878  0.28075455    -0.19860
F351        F  0.43287279  0.32943075  0.22892185    -0.20190
F352        F  0.41648510  0.36824531  0.25765587    -0.22860
C353        C  0.02636749  0.10750080  0.25138929    -0.05700
C354        C  0.49795735  0.09246746  0.24970534     0.00230
C355        C  0.47085244  0.11039695  0.24818986    -0.08340
C356        C  0.47355259  0.14244482  0.24847833    -0.05720
C357        C  0.50196141  0.15747810  0.25018689     0.00220
C358        C  0.02906868  0.13954880  0.25166683    -0.08250
C359        C  0.06090221  0.15355073  0.25357500     0.62130
H360        H  0.04688483  0.09378467  0.25255158     0.12820
H361        H  0.45303277  0.15615932  0.24734329     0.12830
C362        C  0.43902429  0.09639660  0.24620655     0.62360
F363        F  0.08361822  0.13156780  0.25507621    -0.22810
F364        F  0.06319233  0.17125404  0.27972975    -0.20140
F365        F  0.06655494  0.17126823  0.22774645    -0.19810
F366        F  0.43322181  0.07887217  0.27212944    -0.19860
F367        F  0.43686930  0.07850119  0.22017338    -0.20190
F368        F  0.41632769  0.11837917  0.24441820    -0.22860
O369        O  0.47378797  0.99839527  0.79249958    -0.71700
O370        O  0.47672991  0.50012160  0.70533678    -0.71910
O371        O  0.47647989  0.45594917  0.74829951    -0.71770
O372        O  0.47408519  0.04260655  0.74955452    -0.71780
O373        O  0.02345572  0.04395856  0.74965208    -0.71740
O374        O  0.02575782  0.45730589  0.75132326    -0.71760
O375        O  0.02611152  0.99999950  0.70688064    -0.71700
O376        O  0.02308740  0.50121903  0.79406562    -0.71890
V377        V  0.47620037  0.49929829  0.74895284     1.35240
V378        V  0.02367562  0.50060512  0.75044274     1.35170
C379        C  0.99786072  0.49978547  0.80834479     0.77380
C380        C  0.00198007  0.50011397  0.69104619     0.77600
C381        C  0.50157036  0.44164479  0.74980697     0.77470
C382        C  0.49832810  0.05827739  0.74959273     0.77430
O383        O  0.02314377  0.25018082  0.79482599    -0.71700
O384        O  0.02621682  0.25109795  0.70765595    -0.71910
O385        O  0.02351216  0.29399742  0.75145651    -0.71770
O386        O  0.02582696  0.20732791  0.75099305    -0.71780
O387        O  0.47647885  0.20599631  0.74977413    -0.71740
O388        O  0.47418523  0.29265854  0.74941992    -0.71760
O389        O  0.47688748  0.24940015  0.70602602    -0.71700
O390        O  0.47379493  0.24922089  0.79320718    -0.71890
V391        V  0.02374119  0.25063724  0.75120269     1.35240
V392        V  0.47626930  0.24935207  0.74964809     1.35170
C393        C  0.49788406  0.24953156  0.80909451     0.77540
C394        C  0.50214715  0.25028489  0.69176619     0.77600
C395        C  0.49840495  0.30831480  0.75044254     0.77470
C396        C  0.50159209  0.19166777  0.75035022     0.77430
O397        O  0.22437170  0.50092435  0.79277651    -0.71700
O398        O  0.22618254  0.50099873  0.70535508    -0.71910
O399        O  0.22328577  0.45765150  0.74897832    -0.71770
O400        O  0.22729093  0.04433428  0.74921139    -0.71780
O401        O  0.27667987  0.04244703  0.74978609    -0.71740
O402        O  0.27264843  0.45564618  0.75045562    -0.71760
O403        O  0.27563995  0.49863601  0.70639616    -0.71700
O404        O  0.27386846  0.49943262  0.79376524    -0.71890
V405        V  0.22623545  0.50097019  0.74910327     1.35240
V406        V  0.27376575  0.49904384  0.75005030     1.35170
C407        C  0.24876161  0.50030914  0.80824769     0.77540
C408        C  0.25129219  0.49972181  0.69089128     0.77600
C409        C  0.24728685  0.44167205  0.74956084     0.77470
C410        C  0.25260906  0.05837931  0.74988938     0.77430
O411        O  0.27435411  0.25104174  0.79368098    -0.71700
O412        O  0.27353935  0.24889613  0.70640866    -0.71910
O413        O  0.27440382  0.29309098  0.74883728    -0.71770
O414        O  0.27347326  0.20649199  0.75145152    -0.71780
O415        O  0.22403855  0.20691048  0.75081656    -0.71740
O416        O  0.22500458  0.29376195  0.75039579    -0.71760
O417        O  0.22400268  0.25060235  0.70706942    -0.71700
O418        O  0.22465620  0.25033771  0.79422797    -0.71890
V419        V  0.27299202  0.24984284  0.75008707     1.35240
V420        V  0.22536697  0.25034641  0.75062723     1.35170
C421        C  0.24959676  0.25112816  0.80870498     0.77540
C422        C  0.24860239  0.25022554  0.69182505     0.77600
C423        C  0.24997592  0.30839199  0.74917933     0.77470
C424        C  0.24858864  0.19172155  0.75163191     0.77430
O425        O  0.04332070  0.02232603  0.99902801    -0.71700
O426        O  0.45638529  0.02220575  0.49998698    -0.71910
O427        O  0.00026177  0.02277812  0.54304633    -0.71770
O428        O  0.49948324  0.02248860  0.95596177    -0.71780
O429        O  0.00085106  0.47280863  0.95622231    -0.71740
O430        O  0.49888428  0.47309961  0.54356482    -0.71760
O431        O  0.45664290  0.47281467  0.99913606    -0.71700
O432        O  0.04308932  0.47294285  0.50068191    -0.71890
V433        V  0.99985813  0.02152117  0.49951098     1.35240
V434        V  0.49986804  0.47387859  0.49989159     1.35170
C435        C  0.05819437  0.99748856  0.49990515     0.77540
C436        C  0.44152138  0.99732484  0.49951985     0.77600
C437        C  0.99943583  0.99805002  0.55806428     0.77470
C438        C  0.00031505  0.99767289  0.94133540     0.77430
O439        O  0.45666200  0.27221138  0.49985450    -0.71700
O440        O  0.04366493  0.27220739  0.00046600    -0.71910
O441        O  0.50059872  0.27230446  0.95662530    -0.71770
O442        O  0.49972348  0.27291511  0.54367923    -0.71780
O443        O  0.49996315  0.22321414  0.54439172    -0.71740
O444        O  0.00018843  0.22260108  0.95704745    -0.71760
O445        O  0.04328830  0.22279963  0.50063368    -0.71700
O446        O  0.45690053  0.22281508  0.00074829    -0.71890
V447        V  0.50015982  0.27148303  0.50016338     1.35240
V448        V  0.50009197  0.22383128  0.00070352     1.35170
C449        C  0.44179354  0.24731804  0.00022208     0.77540
C450        C  0.05846012  0.24729998  0.50064188     0.77600
C451        C  0.50050319  0.24742567  0.94209323     0.77470
C452        C  0.49970711  0.24823381  0.55878114     0.77430
O453        O  0.25083762  0.02851531  0.95680751    -0.71700
O454        O  0.24928753  0.02457026  0.54412135    -0.71910
O455        O  0.29315178  0.02647175  0.00106511    -0.71770
O456        O  0.20670930  0.02679649  0.50000219    -0.71780
O457        O  0.20627076  0.47743871  0.99823000    -0.71740
O458        O  0.29319658  0.47712935  0.49902324    -0.71760
O459        O  0.24892125  0.47497189  0.54214536    -0.71700
O460        O  0.25018668  0.47890721  0.95512218    -0.71890
V461        V  0.24996183  0.02562589  0.00046678     1.35240
V462        V  0.24968962  0.47804532  0.49864765     1.35170
C463        C  0.25081254  0.50426143  0.94114251     0.77540
C464        C  0.24869939  0.49907659  0.55794124     0.77600
C465        C  0.30816879  0.50192862  0.50014686     0.77470
C466        C  0.19150190  0.50231808  0.49912291     0.77430
O467        O  0.29365895  0.22649510  0.50054149    -0.71700
O468        O  0.20664173  0.22636376  0.00106671    -0.71910
O469        O  0.25006293  0.22554568  0.95745567    -0.71770
O470        O  0.25047554  0.22646963  0.54428308    -0.71780
O471        O  0.25043676  0.27607292  0.54382154    -0.71740
O472        O  0.24974896  0.27492791  0.95618105    -0.71760
O473        O  0.20693611  0.27575367  0.50048656    -0.71700
O474        O  0.29330673  0.27587142  0.99954454    -0.71890
V475        V  0.25017901  0.22716392  0.00083302     1.35240
V476        V  0.25011257  0.27472226  0.00002713     1.35170
C477        C  0.30847409  0.25140892  0.99996033     0.77540
C478        C  0.19179788  0.25124930  0.00068105     0.77600
C479        C  0.24969550  0.24980477  0.94175734     0.77470
C480        C  0.25094665  0.25125681  0.55891469     0.77430
C481        C  0.39282920  0.27575393  0.99959908    -0.05700
C482        C  0.40761449  0.24723492  0.00007446     0.00230
C483        C  0.38945699  0.22015210  0.50029839    -0.08340
C484        C  0.35743672  0.22302434  0.50036108    -0.05720
C485        C  0.34265193  0.25153379  0.99987737     0.00220
C486        C  0.36080040  0.27861566  0.99935102    -0.08250
C487        C  0.34707951  0.31061130  0.99846265     0.62130
H488        H  0.40673587  0.29620331  0.99936409     0.12820
H489        H  0.34352756  0.20257828  0.50071584     0.12830
C490        C  0.40313192  0.18812343  0.50027146     0.62360
F491        F  0.36925958  0.33321928  0.49779481    -0.22810
F492        F  0.32933421  0.31533188  0.52439209    -0.20140
F493        F  0.32949275  0.31411653  0.97231792    -0.19810
F494        F  0.42064263  0.18375788  0.52631820    -0.19860
F495        F  0.42093356  0.18416918  0.97424651    -0.20190
F496        F  0.38092116  0.16554372  0.00017693    -0.22860
C497        C  0.14271679  0.22311350  0.50429637    -0.05700
C498        C  0.15761667  0.25136570  0.00053583     0.00230
C499        C  0.13957781  0.27821756  0.99654983    -0.08340
C500        C  0.10753178  0.27542665  0.99676708    -0.05720
C501        C  0.09263584  0.24718232  0.50064074     0.00220
C502        C  0.11067440  0.22031394  0.50440316    -0.08250
C503        C  0.09679884  0.18862435  0.50871230     0.62130
H504        H  0.15655061  0.20284274  0.50725090     0.12820
H505        H  0.09369455  0.29568949  0.99376892     0.12830
C506        C  0.15344677  0.30986577  0.99182374     0.62360
F507        F  0.11884808  0.16631002  0.51290429    -0.22810
F508        F  0.08016783  0.18076681  0.98294233    -0.20140
F509        F  0.07808376  0.18826566  0.53441765    -0.19810
F510        F  0.17223058  0.30987889  0.96616723    -0.19860
F511        F  0.17000793  0.31811314  0.51751481    -0.20190
F512        F  0.13139312  0.33210186  0.98723009    -0.22860
C513        C  0.35705133  0.47336805  0.99818704    -0.05700
C514        C  0.34236231  0.50186764  0.50016943     0.00230
C515        C  0.36062400  0.02881152  0.50187683    -0.08340
C516        C  0.39263973  0.02582294  0.50161910    -0.05720
C517        C  0.40733067  0.49732812  0.49960612     0.00220
C518        C  0.38907721  0.47039743  0.99777062    -0.08250
C519        C  0.40268298  0.43846137  0.99518093     0.62130
H520        H  0.34306799  0.45302513  0.99685175     0.12820
H521        H  0.40661692  0.04616416  0.50302198     0.12830
C522        C  0.34704721  0.06080459  0.50398030     0.62360
F523        F  0.38042227  0.41604408  0.49309384    -0.22810
F524        F  0.42001638  0.43196190  0.52091144    -0.20140
F525        F  0.42065345  0.43659470  0.96902420    -0.19810
F526        F  0.32920118  0.06314316  0.53018275    -0.19860
F527        F  0.32960921  0.06685964  0.97820604    -0.20190
F528        F  0.36932331  0.08325317  0.00556263    -0.22860
C529        C  0.10706511  0.02619331  0.49955032    -0.05700
C530        C  0.09237478  0.49758138  0.49992909     0.00230
C531        C  0.11062519  0.47061129  0.00032637    -0.08340
C532        C  0.14263221  0.47367171  0.99985546    -0.05720
C533        C  0.15732209  0.50227627  0.49938112     0.00220
C534        C  0.13908519  0.02924325  0.49946363    -0.08250
C535        C  0.15271993  0.06130001  0.49953509     0.62130
H536        H  0.09309446  0.04657226  0.49942406     0.12820
H537        H  0.15660419  0.45329511  0.00003015     0.12830
C538        C  0.09706249  0.43852236  0.00146584     0.62360
F539        F  0.13047903  0.08381001  0.99949013    -0.22810
F540        F  0.17057874  0.06563411  0.97356718    -0.20140
F541        F  0.17017894  0.06533421  0.52565755    -0.19810
F542        F  0.07924403  0.43354466  0.97578841    -0.19860
F543        F  0.07959026  0.43499947  0.52781635    -0.20190
F544        F  0.11935250  0.41606568  0.50195171    -0.22860
C545        C  0.23031767  0.26968503  0.60829981    -0.05700
C546        C  0.25139075  0.25109702  0.59287147     0.00230
C547        C  0.27193845  0.23268653  0.60999269    -0.08340
C548        C  0.27023006  0.23328065  0.64226195    -0.05720
C549        C  0.24848577  0.25110859  0.65776720     0.00220
C550        C  0.22820902  0.26987077  0.64058384    -0.08250
C551        C  0.20482260  0.29046989  0.65600411     0.62130
H552        H  0.21491509  0.28356572  0.59469744     0.12820
H553        H  0.28562507  0.21928060  0.65574274     0.12830
C554        C  0.29607693  0.21305605  0.59443286     0.62360
F555        F  0.19029826  0.30939358  0.63506089    -0.22810
F556        F  0.21906592  0.30883004  0.67744189    -0.20140
F557        F  0.18266290  0.27287621  0.67036261    -0.19810
F558        F  0.31297836  0.23067057  0.57405849    -0.19860
F559        F  0.28225085  0.18940174  0.57875379    -0.20190
F560        F  0.31611970  0.20031414  0.61544858    -0.22860
C561        C  0.24438507  0.22379132  0.85776506    -0.05700
C562        C  0.24973087  0.25138867  0.84244744     0.00230
C563        C  0.25469551  0.27838581  0.85927939    -0.08340
C564        C  0.25448418  0.27675724  0.89156630    -0.05720
C565        C  0.24944474  0.24901103  0.90741740     0.00220
C566        C  0.24420964  0.22183135  0.89004996    -0.08250
C567        C  0.23826158  0.19075760  0.90482347     0.62130
H568        H  0.24055860  0.20361053  0.84396442     0.12820
H569        H  0.25839728  0.29735914  0.90464663     0.12830
C570        C  0.25962673  0.30877719  0.84300746     0.62360
F571        F  0.23221063  0.16841487  0.88322528    -0.22810
F572        F  0.21315710  0.19241609  0.92417452    -0.20140
F573        F  0.26371617  0.18149508  0.92116623    -0.19810
F574        F  0.23457567  0.31536387  0.82484251    -0.19860
F575        F  0.28545447  0.30725546  0.82466191    -0.20190
F576        F  0.26345226  0.33253116  0.86355235    -0.22860
C577        C  0.22797357  0.48366230  0.64159718    -0.05700
C578        C  0.25183992  0.49903163  0.65668817     0.00230
C579        C  0.27469570  0.01405351  0.63885335    -0.08340
C580        C  0.27277837  0.01307652  0.60666109    -0.05720
C581        C  0.24905309  0.49774602  0.59178826     0.00220
C582        C  0.22616584  0.48270542  0.60928375    -0.08250
C583        C  0.19942754  0.46678379  0.59391925     0.62130
H584        H  0.21065303  0.47234239  0.65539554     0.12820
H585        H  0.28987826  0.02447949  0.59262980     0.12830
C586        C  0.29989304  0.03278016  0.65342484     0.62360
F587        F  0.17850413  0.45569766  0.61518005    -0.22810
F588        F  0.20985474  0.44237552  0.57677157    -0.20140
F589        F  0.18439868  0.48714665  0.57482371    -0.19810
F590        F  0.31928202  0.01403980  0.66999764    -0.19860
F591        F  0.28680965  0.05422678  0.67253437    -0.20190
F592        F  0.31738048  0.04822738  0.63176290    -0.22860
C593        C  0.27179412  0.01760240  0.85721108    -0.05700
C594        C  0.24827410  0.50142179  0.84241836     0.00230
C595        C  0.22575386  0.48623383  0.86051880    -0.08340
C596        C  0.22715846  0.48861226  0.89267022    -0.05720
C597        C  0.25040151  0.50499075  0.90725903     0.00220
C598        C  0.27341364  0.01945903  0.88948605    -0.08250
C599        C  0.30014346  0.03561751  0.90457209     0.62130
H600        H  0.28902693  0.02881648  0.84321460     0.12820
H601        H  0.21018580  0.47727023  0.90690437     0.12830
C602        C  0.20171182  0.46569263  0.84637752     0.62360
F603        F  0.32139237  0.04576808  0.88317196    -0.22810
F604        F  0.31479097  0.01574986  0.92448831    -0.20140
F605        F  0.28974229  0.06065784  0.92077859    -0.19810
F606        F  0.21610738  0.44410045  0.82836681    -0.19860
F607        F  0.18167856  0.48270622  0.82875410    -0.20190
F608        F  0.18466125  0.45031835  0.86844302    -0.22860
C609        C  0.27431449  0.39241588  0.74327002    -0.05700
C610        C  0.24645497  0.40750597  0.74881291     0.00230
C611        C  0.21952255  0.38963603  0.75313891    -0.08340
C612        C  0.22219766  0.35756731  0.75356664    -0.05720
C613        C  0.25015839  0.34252997  0.74845612     0.00220
C614        C  0.27671406  0.36038876  0.74230766    -0.08250
C615        C  0.30750864  0.34632129  0.73409993     0.62130
H616        H  0.29457419  0.40608133  0.73927931     0.12820
H617        H  0.20201543  0.34382624  0.75768381     0.12830
C618        C  0.18784522  0.40363435  0.75671496     0.62360
F619        F  0.32907305  0.36823210  0.72625389    -0.22810
F620        F  0.30429318  0.32717728  0.70908504    -0.20140
F621        F  0.31878415  0.33007562  0.75893170    -0.19810
F622        F  0.18048638  0.41994404  0.73047045    -0.19860
F623        F  0.18701856  0.42275062  0.78181159    -0.20190
F624        F  0.16539880  0.38167740  0.76110680    -0.22860
C625        C  0.22527114  0.10735644  0.75740293    -0.05700
C626        C  0.25320540  0.09256516  0.75127973     0.00230
C627        C  0.27996476  0.11075307  0.74727035    -0.08340
C628        C  0.27692504  0.14281045  0.74702128    -0.05720
C629        C  0.24881900  0.15754316  0.75237227     0.00220
C630        C  0.22261899  0.13935831  0.75891997    -0.08250
C631        C  0.19204334  0.15308824  0.76834158     0.62130
H632        H  0.20515289  0.09349305  0.76143985     0.12820
H633        H  0.29692712  0.15678432  0.74279848     0.12830
C634        C  0.31181787  0.09711794  0.74388440     0.62360
F635        F  0.17114319  0.13092840  0.77726140    -0.22810
F636        F  0.17952901  0.16903633  0.74393758    -0.20140
F637        F  0.19610116  0.17245762  0.79305398    -0.19810
F638        F  0.31327116  0.07880769  0.71823514    -0.19860
F639        F  0.31884098  0.08005494  0.76973959    -0.20190
F640        F  0.33415269  0.11937227  0.74062939    -0.22860
C641        C  0.47458110  0.24905423  0.64200783    -0.05700
C642        C  0.50291274  0.25017497  0.65739671     0.00230
C643        C  0.03039548  0.25105305  0.63955118    -0.08340
C644        C  0.02815878  0.25017678  0.60728517    -0.05720
C645        C  0.49990657  0.24875490  0.59249859     0.00220
C646        C  0.47263593  0.24852271  0.60980057    -0.08250
C647        C  0.44170141  0.24788036  0.59408069     0.62130
H648        H  0.45367575  0.24863885  0.65537087     0.12820
H649        H  0.04856558  0.25062834  0.59310579     0.12830
C650        C  0.06204132  0.25297969  0.65382850     0.62360
F651        F  0.41779671  0.24765129  0.61502566    -0.22810
F652        F  0.43940188  0.22194947  0.57621315    -0.20140
F653        F  0.43858757  0.27344322  0.57552460    -0.19810
F654        F  0.06727781  0.22747068  0.67196049    -0.19860
F655        F  0.06433690  0.27918373  0.67135178    -0.20190
F656        F  0.08496855  0.25416950  0.63181500    -0.22860
C657        C  0.47196963  0.24750457  0.89359995    -0.05700
C658        C  0.50026146  0.24752306  0.90837861     0.00230
C659        C  0.02750845  0.24849685  0.89107039    -0.08340
C660        C  0.02552296  0.24908920  0.85885500    -0.05720
C661        C  0.49715564  0.24900367  0.84347131     0.00220
C662        C  0.46967529  0.24835314  0.86133041    -0.08250
C663        C  0.43796454  0.24868647  0.84706795     0.62130
H664        H  0.45157404  0.24698089  0.90779347     0.12820
H665        H  0.04641946  0.24968524  0.84548379     0.12830
C666        C  0.05845147  0.24894205  0.90680501     0.62360
F667        F  0.41502098  0.24839242  0.86908948    -0.22810
F668        F  0.43406744  0.22311399  0.82891666    -0.20140
F669        F  0.43427940  0.27490303  0.82957072    -0.19810
F670        F  0.06170823  0.22297770  0.92475192    -0.19860
F671        F  0.06064357  0.27447133  0.92530260    -0.20190
F672        F  0.08233699  0.24979377  0.88585292    -0.22860
C673        C  0.47474360  0.49471498  0.64142626    -0.05700
C674        C  0.00266526  0.99988678  0.65670274     0.00230
C675        C  0.02964826  0.00489047  0.63879403    -0.08340
C676        C  0.02743433  0.00402495  0.60652550    -0.05720
C677        C  0.99965374  0.99843820  0.59180662     0.00220
C678        C  0.47277071  0.49408295  0.60921591    -0.08250
C679        C  0.44212029  0.48941864  0.59362254     0.62130
H680        H  0.45420532  0.49109271  0.65489976     0.12820
H681        H  0.04752286  0.00756135  0.59230670     0.12830
C682        C  0.06067560  0.01139714  0.65305209     0.62360
F683        F  0.41849573  0.48631412  0.61467224    -0.22810
F684        F  0.44303301  0.46330139  0.57589276    -0.20140
F685        F  0.43574927  0.01428770  0.57496610    -0.19810
F686        F  0.07022903  0.48632852  0.66995163    -0.19860
F687        F  0.05877965  0.03677910  0.67181135    -0.20190
F688        F  0.08286611  0.01733781  0.63102961    -0.22860
C689        C  0.47204061  0.00155156  0.89280523    -0.05700
C690        C  0.00010674  0.99788793  0.90759430     0.00230
C691        C  0.02724551  0.49544578  0.89025199    -0.08340
C692        C  0.02530316  0.49610577  0.85803852    -0.05720
C693        C  0.99713157  0.99941634  0.84268873     0.00220
C694        C  0.46983587  0.00244384  0.86053138    -0.08250
C695        C  0.43846694  0.00692309  0.84621153     0.62130
H696        H  0.45174502  0.00366111  0.90697859     0.12820
H697        H  0.04605843  0.49392486  0.84462378     0.12830
C698        C  0.05806564  0.49246738  0.90591839     0.62360
F699        F  0.41588655  0.01111009  0.86818521    -0.22810
F700        F  0.43064475  0.48142007  0.82928731    -0.20140
F701        F  0.43869235  0.03255945  0.82746957    -0.19810
F702        F  0.05859993  0.46605889  0.92345751    -0.19860
F703        F  0.06290546  0.01737001  0.92476678    -0.20190
F704        F  0.08189961  0.49113572  0.88494187    -0.22860
C705        C  0.02639443  0.35755472  0.74802235    -0.05700
C706        C  0.49801891  0.34249055  0.75027283     0.00230
C707        C  0.47092101  0.36037269  0.75237611    -0.08340
C708        C  0.47359475  0.39242019  0.75220313    -0.05720
C709        C  0.50196690  0.40747853  0.74997421     0.00220
C710        C  0.02906040  0.38960657  0.74779752    -0.08250
C711        C  0.06081829  0.40369121  0.74503088     0.62130
H712        H  0.04689667  0.34386194  0.74634675     0.12820
H713        H  0.45309972  0.40612103  0.75390151     0.12830
C714        C  0.43913887  0.34631495  0.75495493     0.62360
F715        F  0.08345108  0.38178090  0.74200873    -0.22810
F716        F  0.06729616  0.42042976  0.77110615    -0.20140
F717        F  0.06228413  0.42238292  0.71932555    -0.19810
F718        F  0.43745468  0.32777879  0.78075449    -0.19860
F719        F  0.43287283  0.32943075  0.72892179    -0.20190
F720        F  0.41648511  0.36824531  0.75765578    -0.22860
C721        C  0.02636750  0.10750080  0.75138930    -0.05700
C722        C  0.49795734  0.09246746  0.74970536     0.00230
C723        C  0.47085243  0.11039696  0.74818987    -0.08340
C724        C  0.47355258  0.14244483  0.74847834    -0.05720
C725        C  0.50196140  0.15747810  0.75018691     0.00220
C726        C  0.02906869  0.13954880  0.75166685    -0.08250
C727        C  0.06090222  0.15355074  0.75357502     0.62130
H728        H  0.04688485  0.09378468  0.75255161     0.12820
H729        H  0.45303277  0.15615933  0.74734329     0.12830
C730        C  0.43902428  0.09639661  0.74620656     0.62360
F731        F  0.08361823  0.13156781  0.75507624    -0.22810
F732        F  0.06319233  0.17125405  0.77972978    -0.20140
F733        F  0.06655495  0.17126824  0.72774648    -0.19810
F734        F  0.43322179  0.07887218  0.77212945    -0.19860
F735        F  0.43686929  0.07850121  0.72017338    -0.20190
F736        F  0.41632769  0.11837918  0.74441821    -0.22860
O737        O  0.47378797  0.49839528  0.29249958    -0.71700
O738        O  0.47672991  0.00012159  0.20533679    -0.71910
O739        O  0.47647989  0.95594917  0.24829952    -0.71770
O740        O  0.47408520  0.54260656  0.24955452    -0.71780
O741        O  0.02345572  0.54395856  0.24965207    -0.71740
O742        O  0.02575781  0.95730588  0.25132327    -0.71760
O743        O  0.02611152  0.49999949  0.20688064    -0.71700
O744        O  0.02308739  0.00121904  0.29406562    -0.71890
V745        V  0.47620037  0.99929829  0.24895285     1.35240
V746        V  0.02367561  0.00060512  0.25044274     1.35170
C747        C  0.99786070  0.99978548  0.30834479     0.77380
C748        C  0.00198007  0.00011396  0.19104619     0.77600
C749        C  0.50157036  0.94164479  0.24980698     0.77470
C750        C  0.49832810  0.55827739  0.24959272     0.77430
O751        O  0.02314375  0.75018082  0.29482599    -0.71700
O752        O  0.02621680  0.75109795  0.20765595    -0.71910
O753        O  0.02351214  0.79399742  0.25145652    -0.71770
O754        O  0.02582694  0.70732791  0.25099304    -0.71780
O755        O  0.47647885  0.70599631  0.24977413    -0.71740
O756        O  0.47418523  0.79265854  0.24941993    -0.71760
O757        O  0.47688748  0.74940015  0.20602603    -0.71700
O758        O  0.47379494  0.74922088  0.29320718    -0.71890
V759        V  0.02374117  0.75063724  0.25120269     1.35240
V760        V  0.47626930  0.74935207  0.24964809     1.35170
C761        C  0.49788406  0.74953155  0.30909451     0.77540
C762        C  0.50214714  0.75028489  0.19176619     0.77600
C763        C  0.49840495  0.80831480  0.25044255     0.77470
C764        C  0.50159210  0.69166777  0.25035021     0.77430
O765        O  0.22437171  0.00092435  0.29277651    -0.71700
O766        O  0.22618255  0.00099874  0.20535508    -0.71910
O767        O  0.22328577  0.95765150  0.24897832    -0.71770
O768        O  0.22729094  0.54433428  0.24921138    -0.71780
O769        O  0.27667988  0.54244703  0.24978608    -0.71740
O770        O  0.27264844  0.95564618  0.25045561    -0.71760
O771        O  0.27563996  0.99863602  0.20639617    -0.71700
O772        O  0.27386847  0.99943261  0.29376525    -0.71890
V773        V  0.22623546  0.00097019  0.24910327     1.35240
V774        V  0.27376576  0.99904384  0.25005030     1.35170
C775        C  0.24876162  0.00030913  0.30824770     0.77540
C776        C  0.25129220  0.99972182  0.19089129     0.77600
C777        C  0.24728685  0.94167205  0.24956084     0.77470
C778        C  0.25260906  0.55837931  0.24988938     0.77430
O779        O  0.27435413  0.75104174  0.29368098    -0.71700
O780        O  0.27353936  0.74889613  0.20640866    -0.71910
O781        O  0.27440383  0.79309098  0.24883728    -0.71770
O782        O  0.27347327  0.70649199  0.25145152    -0.71780
O783        O  0.22403857  0.70691048  0.25081658    -0.71740
O784        O  0.22500459  0.79376195  0.25039579    -0.71760
O785        O  0.22400268  0.75060235  0.20706942    -0.71700
O786        O  0.22465622  0.75033771  0.29422797    -0.71890
V787        V  0.27299203  0.74984284  0.25008707     1.35240
V788        V  0.22536698  0.75034641  0.25062724     1.35170
C789        C  0.24959677  0.75112816  0.30870498     0.77540
C790        C  0.24860239  0.75022554  0.19182505     0.77600
C791        C  0.24997593  0.80839199  0.24917933     0.77470
C792        C  0.24858865  0.69172155  0.25163192     0.77430
O793        O  0.04332070  0.52232604  0.49902801    -0.71700
O794        O  0.45638530  0.52220576  0.99998698    -0.71910
O795        O  0.00026177  0.52277813  0.04304633    -0.71770
O796        O  0.49948323  0.52248862  0.45596177    -0.71780
O797        O  0.00085105  0.97280862  0.45622230    -0.71740
O798        O  0.49888428  0.97309960  0.04356483    -0.71760
O799        O  0.45664290  0.97281466  0.49913604    -0.71700
O800        O  0.04308932  0.97294284  0.00068190    -0.71890
V801        V  0.99985813  0.52152118  0.99951098     1.35240
V802        V  0.49986805  0.97387858  0.99989159     1.35170
C803        C  0.05819437  0.49748857  0.99990516     0.77540
C804        C  0.44152138  0.49732486  0.99951986     0.77600
C805        C  0.99943583  0.49805003  0.05806429     0.77470
C806        C  0.00031505  0.49767290  0.44133540     0.77430
O807        O  0.45666199  0.77221138  0.99985450    -0.71700
O808        O  0.04366494  0.77220738  0.50046599    -0.71910
O809        O  0.50059872  0.77230445  0.45662529    -0.71770
O810        O  0.49972347  0.77291510  0.04367923    -0.71780
O811        O  0.49996312  0.72321413  0.04439172    -0.71740
O812        O  0.00018843  0.72260106  0.45704745    -0.71760
O813        O  0.04328829  0.72279964  0.00063369    -0.71700
O814        O  0.45690054  0.72281506  0.50074830    -0.71890
V815        V  0.50015981  0.77148303  0.00016338     1.35240
V816        V  0.50009198  0.72383126  0.50070353     1.35170
C817        C  0.44179355  0.74731803  0.50022209     0.77540
C818        C  0.05846010  0.74729998  0.00064189     0.77600
C819        C  0.50050319  0.74742565  0.44209323     0.77470
C820        C  0.49970709  0.74823380  0.05878114     0.77430
O821        O  0.25083762  0.52851532  0.45680751    -0.71700
O822        O  0.24928753  0.52457027  0.04412135    -0.71910
O823        O  0.29315178  0.52647176  0.50106511    -0.71770
O824        O  0.20670931  0.52679650  0.00000219    -0.71780
O825        O  0.20627076  0.97743870  0.49823000    -0.71740
O826        O  0.29319658  0.97712934  0.99902324    -0.71760
O827        O  0.24892126  0.97497190  0.04214537    -0.71700
O828        O  0.25018668  0.97890720  0.45512219    -0.71890
V829        V  0.24996183  0.52562589  0.50046679     1.35240
V830        V  0.24968963  0.97804531  0.99864765     1.35170
C831        C  0.25081253  0.00426141  0.44114252     0.77540
C832        C  0.24869940  0.99907660  0.05794125     0.77600
C833        C  0.30816879  0.00192862  0.00014686     0.77470
C834        C  0.19150190  0.00231808  0.99912292     0.77430
O835        O  0.29365894  0.72649510  0.00054149    -0.71700
O836        O  0.20664173  0.72636375  0.50106671    -0.71910
O837        O  0.25006295  0.72554568  0.45745567    -0.71770
O838        O  0.25047553  0.72646964  0.04428308    -0.71780
O839        O  0.25043675  0.77607292  0.04382155    -0.71740
O840        O  0.24974897  0.77492790  0.45618105    -0.71760
O841        O  0.20693609  0.77575367  0.00048657    -0.71700
O842        O  0.29330674  0.77587142  0.49954456    -0.71890
V843        V  0.25017901  0.72716391  0.50083303     1.35240
V844        V  0.25011258  0.77472225  0.50002714     1.35170
C845        C  0.30847410  0.75140891  0.49996035     0.77540
C846        C  0.19179788  0.75124929  0.50068104     0.77600
C847        C  0.24969552  0.74980477  0.44175734     0.77470
C848        C  0.25094664  0.75125681  0.05891469     0.77430
C849        C  0.39282921  0.77575391  0.49959909    -0.05700
C850        C  0.40761449  0.74723491  0.50007447     0.00230
C851        C  0.38945698  0.72015210  0.00029838    -0.08340
C852        C  0.35743671  0.72302435  0.00036106    -0.05720
C853        C  0.34265194  0.75153378  0.49987739     0.00220
C854        C  0.36080041  0.77861565  0.49935103    -0.08250
C855        C  0.34707951  0.81061129  0.49846265     0.62130
H856        H  0.40673588  0.79620330  0.49936409     0.12820
H857        H  0.34352754  0.70257828  0.00071583     0.12830
C858        C  0.40313190  0.68812343  0.00027145     0.62360
F859        F  0.36925957  0.83321928  0.99779480    -0.22810
F860        F  0.32933420  0.81533188  0.02439208    -0.20140
F861        F  0.32949275  0.81411651  0.47231792    -0.19810
F862        F  0.42064262  0.68375788  0.02631819    -0.19860
F863        F  0.42093356  0.68416915  0.47424655    -0.20190
F864        F  0.38092117  0.66554371  0.50017699    -0.22860
C865        C  0.14271677  0.72311350  0.00429638    -0.05700
C866        C  0.15761668  0.75136570  0.50053582     0.00230
C867        C  0.13957781  0.77821755  0.49654982    -0.08340
C868        C  0.10753178  0.77542664  0.49676706    -0.05720
C869        C  0.09263582  0.74718232  0.00064075     0.00220
C870        C  0.11067439  0.72031394  0.00440317    -0.08250
C871        C  0.09679882  0.68862435  0.00871232     0.62130
H872        H  0.15655059  0.70284274  0.00725092     0.12820
H873        H  0.09369456  0.79568948  0.49376890     0.12830
C874        C  0.15344677  0.80986576  0.49182372     0.62360
F875        F  0.11884806  0.66631003  0.01290432    -0.22810
F876        F  0.08016784  0.68076681  0.48294231    -0.20140
F877        F  0.07808375  0.68826566  0.03441766    -0.19810
F878        F  0.17223059  0.80987888  0.46616722    -0.19860
F879        F  0.17000792  0.81811314  0.01751482    -0.20190
F880        F  0.13139312  0.83210186  0.48723006    -0.22860
C881        C  0.35705133  0.97336803  0.49818703    -0.05700
C882        C  0.34236232  0.00186763  0.00016942     0.00230
C883        C  0.36062400  0.52881154  0.00187683    -0.08340
C884        C  0.39263973  0.52582296  0.00161911    -0.05720
C885        C  0.40733067  0.99732811  0.99960610     0.00220
C886        C  0.38907721  0.97039742  0.49777061    -0.08250
C887        C  0.40268298  0.93846135  0.49518093     0.62130
H888        H  0.34306799  0.95302511  0.49685174     0.12820
H889        H  0.40661692  0.54616417  0.00302199     0.12830
C890        C  0.34704721  0.56080461  0.00398029     0.62360
F891        F  0.38042227  0.91604407  0.99309382    -0.22810
F892        F  0.42001638  0.93196189  0.02091143    -0.20140
F893        F  0.42065344  0.93659468  0.46902420    -0.19810
F894        F  0.32920118  0.56314318  0.03018273    -0.19860
F895        F  0.32960921  0.56685965  0.47820607    -0.20190
F896        F  0.36932330  0.58325317  0.50556268    -0.22860
C897        C  0.10706512  0.52619332  0.99955032    -0.05700
C898        C  0.09237478  0.99758137  0.99992909     0.00230
C899        C  0.11062519  0.97061127  0.50032636    -0.08340
C900        C  0.14263220  0.97367169  0.49985546    -0.05720
C901        C  0.15732209  0.00227627  0.99938112     0.00220
C902        C  0.13908520  0.52924327  0.99946363    -0.08250
C903        C  0.15271993  0.56130002  0.99953509     0.62130
H904        H  0.09309446  0.54657227  0.99942407     0.12820
H905        H  0.15660419  0.95329510  0.50003014     0.12830
C906        C  0.09706248  0.93852235  0.50146582     0.62360
F907        F  0.13047903  0.58381001  0.49949014    -0.22810
F908        F  0.17057874  0.56563412  0.47356718    -0.20140
F909        F  0.17017894  0.56533423  0.02565754    -0.19810
F910        F  0.07924403  0.93354465  0.47578839    -0.19860
F911        F  0.07959025  0.93499947  0.02781636    -0.20190
F912        F  0.11935251  0.91606568  0.00195173    -0.22860
C913        C  0.23031766  0.76968503  0.10829982    -0.05700
C914        C  0.25139074  0.75109703  0.09287148     0.00230
C915        C  0.27193846  0.73268655  0.10999269    -0.08340
C916        C  0.27023007  0.73328066  0.14226195    -0.05720
C917        C  0.24848577  0.75110859  0.15776721     0.00220
C918        C  0.22820901  0.76987077  0.14058385    -0.08250
C919        C  0.20482258  0.79046987  0.15600411     0.62130
H920        H  0.21491506  0.78356570  0.09469745     0.12820
H921        H  0.28562509  0.71928062  0.15574273     0.12830
C922        C  0.29607694  0.71305608  0.09443286     0.62360
F923        F  0.19029823  0.80939356  0.13506090    -0.22810
F924        F  0.21906589  0.80883002  0.17744190    -0.20140
F925        F  0.18266289  0.77287618  0.17036262    -0.19810
F926        F  0.31297836  0.73067061  0.07405849    -0.19860
F927        F  0.28225087  0.68940176  0.07875379    -0.20190
F928        F  0.31611972  0.70031417  0.11544857    -0.22860
C929        C  0.24438511  0.72379131  0.35776506    -0.05700
C930        C  0.24973089  0.75138867  0.34244744     0.00230
C931        C  0.25469551  0.77838582  0.35927939    -0.08340
C932        C  0.25448418  0.77675725  0.39156631    -0.05720
C933        C  0.24944476  0.74901102  0.40741740     0.00220
C934        C  0.24420968  0.72183134  0.39004996    -0.08250
C935        C  0.23826165  0.69075758  0.40482346     0.62130
H936        H  0.24055866  0.70361052  0.34396442     0.12820
H937        H  0.25839726  0.79735914  0.40464664     0.12830
C938        C  0.25962672  0.80877719  0.34300747     0.62360
F939        F  0.23221073  0.66841485  0.38322528    -0.22810
F940        F  0.21315716  0.69241605  0.42417452    -0.20140
F941        F  0.26371625  0.68149509  0.42116624    -0.19810
F942        F  0.23457566  0.81536386  0.32484252    -0.19860
F943        F  0.28545446  0.80725548  0.32466192    -0.20190
F944        F  0.26345223  0.83253117  0.36355236    -0.22860
C945        C  0.22797359  0.98366230  0.14159719    -0.05700
C946        C  0.25183993  0.99903165  0.15668818     0.00230
C947        C  0.27469574  0.51405346  0.13885334    -0.08340
C948        C  0.27277840  0.51307648  0.10666108    -0.05720
C949        C  0.24905310  0.99774603  0.09178826     0.00220
C950        C  0.22616585  0.98270542  0.10928376    -0.08250
C951        C  0.19942757  0.96678379  0.09391926     0.62130
H952        H  0.21065306  0.97234238  0.15539555     0.12820
H953        H  0.28987830  0.52447942  0.09262979     0.12830
C954        C  0.29989312  0.53278005  0.15342483     0.62360
F955        F  0.17850415  0.95569764  0.11518006    -0.22810
F956        F  0.20985476  0.94237551  0.07677158    -0.20140
F957        F  0.18439869  0.98714664  0.07482372    -0.19810
F958        F  0.31928206  0.51403964  0.16999762    -0.19860
F959        F  0.28680978  0.55422669  0.17253437    -0.20190
F960        F  0.31738058  0.54822724  0.13176289    -0.22860
C961        C  0.27179412  0.51760241  0.35721108    -0.05700
C962        C  0.24827410  0.00142178  0.34241836     0.00230
C963        C  0.22575386  0.98623381  0.36051880    -0.08340
C964        C  0.22715846  0.98861224  0.39267022    -0.05720
C965        C  0.25040150  0.00499073  0.40725903     0.00220
C966        C  0.27341364  0.51945904  0.38948605    -0.08250
C967        C  0.30014346  0.53561752  0.40457209     0.62130
H968        H  0.28902694  0.52881649  0.34321460     0.12820
H969        H  0.21018579  0.97727021  0.40690437     0.12830
C970        C  0.20171182  0.96569262  0.34637752     0.62360
F971        F  0.32139237  0.54576808  0.38317196    -0.22810
F972        F  0.31479097  0.51574986  0.42448831    -0.20140
F973        F  0.28974230  0.56065784  0.42077859    -0.19810
F974        F  0.21610738  0.94410043  0.32836682    -0.19860
F975        F  0.18167856  0.98270620  0.32875410    -0.20190
F976        F  0.18466125  0.95031834  0.36844301    -0.22860
C977        C  0.27431450  0.89241588  0.24327001    -0.05700
C978        C  0.24645498  0.90750597  0.24881290     0.00230
C979        C  0.21952256  0.88963603  0.25313891    -0.08340
C980        C  0.22219766  0.85756731  0.25356664    -0.05720
C981        C  0.25015840  0.84252998  0.24845612     0.00220
C982        C  0.27671406  0.86038877  0.24230765    -0.08250
C983        C  0.30750864  0.84632129  0.23409992     0.62130
H984        H  0.29457420  0.90608134  0.23927929     0.12820
H985        H  0.20201544  0.84382624  0.25768381     0.12830
C986        C  0.18784523  0.90363435  0.25671496     0.62360
F987        F  0.32907305  0.86823210  0.22625388    -0.22810
F988        F  0.30429319  0.82717728  0.20908504    -0.20140
F989        F  0.31878416  0.83007563  0.25893168    -0.19810
F990        F  0.18048638  0.91994404  0.23047044    -0.19860
F991        F  0.18701857  0.92275063  0.28181159    -0.20190
F992        F  0.16539881  0.88167740  0.26110681    -0.22860
C993        C  0.22527116  0.60735644  0.25740293    -0.05700
C994        C  0.25320541  0.59256517  0.25127973     0.00230
C995        C  0.27996477  0.61075308  0.24727035    -0.08340
C996        C  0.27692505  0.64281045  0.24702129    -0.05720
C997        C  0.24881901  0.65754316  0.25237228     0.00220
C998        C  0.22261900  0.63935831  0.25891998    -0.08250
C999        C  0.19204336  0.65308825  0.26834161     0.62130
H1000       H  0.20515290  0.59349305  0.26143986     0.12820
H1001       H  0.29692713  0.65678433  0.24279849     0.12830
C1002       C  0.31181788  0.59711795  0.24388440     0.62360
F1003       F  0.17114321  0.63092840  0.27726143    -0.22810
F1004       F  0.17952902  0.66903633  0.24393761    -0.20140
F1005       F  0.19610118  0.67245763  0.29305401    -0.19810
F1006       F  0.31327117  0.57880771  0.21823513    -0.19860
F1007       F  0.31884099  0.58005493  0.26973958    -0.20190
F1008       F  0.33415270  0.61937228  0.24062941    -0.22860
C1009       C  0.47458109  0.74905423  0.14200783    -0.05700
C1010       C  0.50291273  0.75017497  0.15739671     0.00230
C1011       C  0.03039546  0.75105305  0.13955118    -0.08340
C1012       C  0.02815875  0.75017677  0.10728517    -0.05720
C1013       C  0.49990655  0.74875490  0.09249859     0.00220
C1014       C  0.47263592  0.74852271  0.10980057    -0.08250
C1015       C  0.44170140  0.74788037  0.09408070     0.62130
H1016       H  0.45367574  0.74863886  0.15537088     0.12820
H1017       H  0.04856556  0.75062833  0.09310579     0.12830
C1018       C  0.06204130  0.75297969  0.15382850     0.62360
F1019       F  0.41779669  0.74765130  0.11502567    -0.22810
F1020       F  0.43940185  0.72194947  0.07621316    -0.20140
F1021       F  0.43858756  0.77344322  0.07552461    -0.19810
F1022       F  0.06727778  0.72747068  0.17196049    -0.19860
F1023       F  0.06433688  0.77918373  0.17135178    -0.20190
F1024       F  0.08496852  0.75416949  0.13181500    -0.22860
C1025       C  0.47196963  0.74750456  0.39359995    -0.05700
C1026       C  0.50026146  0.74752303  0.40837861     0.00230
C1027       C  0.02750844  0.74849683  0.39107038    -0.08340
C1028       C  0.02552294  0.74908918  0.35885499    -0.05720
C1029       C  0.49715565  0.74900366  0.34347131     0.00220
C1030       C  0.46967530  0.74835313  0.36133041    -0.08250
C1031       C  0.43796455  0.74868647  0.34706795     0.62130
H1032       H  0.45157404  0.74698088  0.40779347     0.12820
H1033       H  0.04641945  0.74968521  0.34548378     0.12830
C1034       C  0.05845145  0.74894202  0.40680501     0.62360
F1035       F  0.41502099  0.74839241  0.36908948    -0.22810
F1036       F  0.43406744  0.72311399  0.32891666    -0.20140
F1037       F  0.43427941  0.77490303  0.32957072    -0.19810
F1038       F  0.06170821  0.72297766  0.42475192    -0.19860
F1039       F  0.06064357  0.77447129  0.42530260    -0.20190
F1040       F  0.08233697  0.74979373  0.38585292    -0.22860
C1041       C  0.47474359  0.99471499  0.14142626    -0.05700
C1042       C  0.00266526  0.49988678  0.15670274     0.00230
C1043       C  0.02964826  0.50489048  0.13879403    -0.08340
C1044       C  0.02743433  0.50402497  0.10652550    -0.05720
C1045       C  0.99965373  0.49843821  0.09180662     0.00220
C1046       C  0.47277070  0.99408295  0.10921591    -0.08250
C1047       C  0.44212028  0.98941866  0.09362254     0.62130
H1048       H  0.45420531  0.99109272  0.15489977     0.12820
H1049       H  0.04752285  0.50756137  0.09230670     0.12830
C1050       C  0.06067559  0.51139716  0.15305209     0.62360
F1051       F  0.41849571  0.98631415  0.11467225    -0.22810
F1052       F  0.44303298  0.96330142  0.07589275    -0.20140
F1053       F  0.43574929  0.51428770  0.07496610    -0.19810
F1054       F  0.07022902  0.98632847  0.16995164    -0.19860
F1055       F  0.05877963  0.53677912  0.17181135    -0.20190
F1056       F  0.08286610  0.51733785  0.13102961    -0.22860
C1057       C  0.47204061  0.50155162  0.39280522    -0.05700
C1058       C  0.00010674  0.49788794  0.40759430     0.00230
C1059       C  0.02724550  0.99544577  0.39025198    -0.08340
C1060       C  0.02530314  0.99610576  0.35803852    -0.05720
C1061       C  0.99713158  0.49941636  0.34268873     0.00220
C1062       C  0.46983586  0.50244391  0.36053138    -0.08250
C1063       C  0.43846694  0.50692321  0.34621152     0.62130
H1064       H  0.45174501  0.50366120  0.40697858     0.12820
H1065       H  0.04605842  0.99392484  0.34462378     0.12830
C1066       C  0.05806563  0.99246736  0.40591839     0.62360
F1067       F  0.41588657  0.51111027  0.36818520    -0.22810
F1068       F  0.43064475  0.98142009  0.32928732    -0.20140
F1069       F  0.43869240  0.53255956  0.32746955    -0.19810
F1070       F  0.05859991  0.96605887  0.42345750    -0.19860
F1071       F  0.06290547  0.51736998  0.42476679    -0.20190
F1072       F  0.08189960  0.99113570  0.38494186    -0.22860
C1073       C  0.02639441  0.85755472  0.24802234    -0.05700
C1074       C  0.49801891  0.84249055  0.25027285     0.00230
C1075       C  0.47092102  0.86037269  0.25237615    -0.08340
C1076       C  0.47359475  0.89242019  0.25220316    -0.05720
C1077       C  0.50196690  0.90747853  0.24997423     0.00220
C1078       C  0.02906038  0.88960656  0.24779751    -0.08250
C1079       C  0.06081827  0.90369121  0.24503085     0.62130
H1080       H  0.04689664  0.84386193  0.24634673     0.12820
H1081       H  0.45309973  0.90612103  0.25390155     0.12830
C1082       C  0.43913888  0.84631495  0.25495498     0.62360
F1083       F  0.08345105  0.88178090  0.24200868    -0.22810
F1084       F  0.06729616  0.92042975  0.27110612    -0.20140
F1085       F  0.06228409  0.92238292  0.21932552    -0.19810
F1086       F  0.43745470  0.82777878  0.28075454    -0.19860
F1087       F  0.43287282  0.82943075  0.22892184    -0.20190
F1088       F  0.41648512  0.86824531  0.25765585    -0.22860
C1089       C  0.02636750  0.60750080  0.25138928    -0.05700
C1090       C  0.49795734  0.59246746  0.24970534     0.00230
C1091       C  0.47085244  0.61039696  0.24818986    -0.08340
C1092       C  0.47355259  0.64244483  0.24847833    -0.05720
C1093       C  0.50196141  0.65747810  0.25018689     0.00220
C1094       C  0.02906869  0.63954880  0.25166682    -0.08250
C1095       C  0.06090221  0.65355074  0.25357498     0.62130
H1096       H  0.04688484  0.59378468  0.25255157     0.12820
H1097       H  0.45303277  0.65615933  0.24734329     0.12830
C1098       C  0.43902428  0.59639661  0.24620655     0.62360
F1099       F  0.08361823  0.63156782  0.25507617    -0.22810
F1100       F  0.06319234  0.67125405  0.27972973    -0.20140
F1101       F  0.06655492  0.67126825  0.22774643    -0.19810
F1102       F  0.43322180  0.57887218  0.27212944    -0.19860
F1103       F  0.43686930  0.57850120  0.22017338    -0.20190
F1104       F  0.41632769  0.61837918  0.24441821    -0.22860
O1105       O  0.47378798  0.49839528  0.79249958    -0.71700
O1106       O  0.47672989  0.00012160  0.70533679    -0.71910
O1107       O  0.47647987  0.95594917  0.74829952    -0.71770
O1108       O  0.47408521  0.54260655  0.74955452    -0.71780
O1109       O  0.02345571  0.54395856  0.74965208    -0.71740
O1110       O  0.02575783  0.95730588  0.75132326    -0.71760
O1111       O  0.02611151  0.49999950  0.70688064    -0.71700
O1112       O  0.02308741  0.00121903  0.79406562    -0.71890
V1113       V  0.47620035  0.99929828  0.74895285     1.35240
V1114       V  0.02367563  0.00060512  0.75044273     1.35170
C1115       C  0.99786073  0.99978546  0.80834479     0.77380
C1116       C  0.00198009  0.00011397  0.69104619     0.77600
C1117       C  0.50157035  0.94164479  0.74980697     0.77470
C1118       C  0.49832811  0.55827739  0.74959272     0.77430
O1119       O  0.02314375  0.75018082  0.79482599    -0.71700
O1120       O  0.02621681  0.75109794  0.70765596    -0.71910
O1121       O  0.02351215  0.79399742  0.75145652    -0.71770
O1122       O  0.02582694  0.70732791  0.75099305    -0.71780
O1123       O  0.47647886  0.70599631  0.74977413    -0.71740
O1124       O  0.47418523  0.79265853  0.74941992    -0.71760
O1125       O  0.47688748  0.74940014  0.70602602    -0.71700
O1126       O  0.47379494  0.74922089  0.79320718    -0.71890
V1127       V  0.02374118  0.75063723  0.75120269     1.35240
V1128       V  0.47626930  0.74935207  0.74964809     1.35170
C1129       C  0.49788406  0.74953155  0.80909451     0.77540
C1130       C  0.50214715  0.75028489  0.69176619     0.77600
C1131       C  0.49840495  0.80831480  0.75044254     0.77470
C1132       C  0.50159211  0.69166777  0.75035022     0.77430
O1133       O  0.22437171  0.00092435  0.79277652    -0.71700
O1134       O  0.22618254  0.00099874  0.70535508    -0.71910
O1135       O  0.22328577  0.95765150  0.74897832    -0.71770
O1136       O  0.22729093  0.54433428  0.74921138    -0.71780
O1137       O  0.27667987  0.54244703  0.74978608    -0.71740
O1138       O  0.27264843  0.95564618  0.75045561    -0.71760
O1139       O  0.27563995  0.99863602  0.70639617    -0.71700
O1140       O  0.27386846  0.99943261  0.79376525    -0.71890
V1141       V  0.22623545  0.00097019  0.74910327     1.35240
V1142       V  0.27376575  0.99904383  0.75005030     1.35170
C1143       C  0.24876161  0.00030913  0.80824769     0.77540
C1144       C  0.25129219  0.99972182  0.69089129     0.77600
C1145       C  0.24728685  0.94167205  0.74956084     0.77470
C1146       C  0.25260905  0.55837931  0.74988937     0.77430
O1147       O  0.27435410  0.75104174  0.79368098    -0.71700
O1148       O  0.27353935  0.74889612  0.70640866    -0.71910
O1149       O  0.27440382  0.79309098  0.74883728    -0.71770
O1150       O  0.27347325  0.70649199  0.75145153    -0.71780
O1151       O  0.22403855  0.70691048  0.75081657    -0.71740
O1152       O  0.22500457  0.79376195  0.75039579    -0.71760
O1153       O  0.22400267  0.75060235  0.70706942    -0.71700
O1154       O  0.22465620  0.75033771  0.79422797    -0.71890
V1155       V  0.27299201  0.74984284  0.75008707     1.35240
V1156       V  0.22536696  0.75034641  0.75062723     1.35170
C1157       C  0.24959675  0.75112816  0.80870498     0.77540
C1158       C  0.24860238  0.75022553  0.69182505     0.77600
C1159       C  0.24997591  0.80839199  0.74917933     0.77470
C1160       C  0.24858863  0.69172155  0.75163192     0.77430
O1161       O  0.04332070  0.52232605  0.99902801    -0.71700
O1162       O  0.45638530  0.52220576  0.49998698    -0.71910
O1163       O  0.00026177  0.52277813  0.54304633    -0.71770
O1164       O  0.49948323  0.52248863  0.95596177    -0.71780
O1165       O  0.00085106  0.97280862  0.95622231    -0.71740
O1166       O  0.49888426  0.97309960  0.54356483    -0.71760
O1167       O  0.45664291  0.97281465  0.99913606    -0.71700
O1168       O  0.04308931  0.97294285  0.50068190    -0.71890
V1169       V  0.99985814  0.52152118  0.49951098     1.35240
V1170       V  0.49986804  0.97387858  0.49989159     1.35170
C1171       C  0.05819437  0.49748856  0.49990516     0.77540
C1172       C  0.44152139  0.49732485  0.49951987     0.77600
C1173       C  0.99943583  0.49805002  0.55806429     0.77470
C1174       C  0.00031504  0.49767291  0.94133540     0.77430
O1175       O  0.45666200  0.77221138  0.49985451    -0.71700
O1176       O  0.04366492  0.77220738  0.00046599    -0.71910
O1177       O  0.50059871  0.77230445  0.95662529    -0.71770
O1178       O  0.49972349  0.77291510  0.54367923    -0.71780
O1179       O  0.49996314  0.72321413  0.54439172    -0.71740
O1180       O  0.00018842  0.72260107  0.95704745    -0.71760
O1181       O  0.04328830  0.72279963  0.50063368    -0.71700
O1182       O  0.45690052  0.72281507  0.00074829    -0.71890
V1183       V  0.50015982  0.77148303  0.50016338     1.35240
V1184       V  0.50009197  0.72383127  0.00070353     1.35170
C1185       C  0.44179354  0.74731803  0.00022209     0.77540
C1186       C  0.05846012  0.74729997  0.50064188     0.77600
C1187       C  0.50050319  0.74742566  0.94209323     0.77470
C1188       C  0.49970711  0.74823380  0.55878114     0.77430
O1189       O  0.25083762  0.52851534  0.95680751    -0.71700
O1190       O  0.24928753  0.52457026  0.54412135    -0.71910
O1191       O  0.29315177  0.52647177  0.00106512    -0.71770
O1192       O  0.20670931  0.52679649  0.50000219    -0.71780
O1193       O  0.20627077  0.97743870  0.99823001    -0.71740
O1194       O  0.29319657  0.97712934  0.49902324    -0.71760
O1195       O  0.24892124  0.97497190  0.54214536    -0.71700
O1196       O  0.25018668  0.97890719  0.95512219    -0.71890
V1197       V  0.24996183  0.52562591  0.00046679     1.35240
V1198       V  0.24968962  0.97804531  0.49864765     1.35170
C1199       C  0.25081254  0.00426141  0.94114252     0.77540
C1200       C  0.24869939  0.99907660  0.55794125     0.77600
C1201       C  0.30816879  0.00192862  0.50014686     0.77470
C1202       C  0.19150189  0.00231808  0.49912291     0.77430
O1203       O  0.29365895  0.72649510  0.50054149    -0.71700
O1204       O  0.20664172  0.72636375  0.00106672    -0.71910
O1205       O  0.25006292  0.72554568  0.95745567    -0.71770
O1206       O  0.25047554  0.72646963  0.54428308    -0.71780
O1207       O  0.25043676  0.77607292  0.54382155    -0.71740
O1208       O  0.24974895  0.77492791  0.95618105    -0.71760
O1209       O  0.20693611  0.77575367  0.50048656    -0.71700
O1210       O  0.29330672  0.77587142  0.99954455    -0.71890
V1211       V  0.25017900  0.72716392  0.00083303     1.35240
V1212       V  0.25011256  0.77472226  0.00002714     1.35170
C1213       C  0.30847408  0.75140891  0.99996034     0.77540
C1214       C  0.19179787  0.75124929  0.00068105     0.77600
C1215       C  0.24969549  0.74980477  0.94175734     0.77470
C1216       C  0.25094665  0.75125680  0.55891469     0.77430
C1217       C  0.39282919  0.77575392  0.99959908    -0.05700
C1218       C  0.40761448  0.74723491  0.00007446     0.00230
C1219       C  0.38945699  0.72015210  0.50029839    -0.08340
C1220       C  0.35743672  0.72302434  0.50036108    -0.05720
C1221       C  0.34265192  0.75153378  0.99987738     0.00220
C1222       C  0.36080039  0.77861565  0.99935102    -0.08250
C1223       C  0.34707950  0.81061130  0.99846264     0.62130
H1224       H  0.40673587  0.79620330  0.99936408     0.12820
H1225       H  0.34352756  0.70257828  0.50071585     0.12830
C1226       C  0.40313192  0.68812343  0.50027147     0.62360
F1227       F  0.36925958  0.83321928  0.49779480    -0.22810
F1228       F  0.32933422  0.81533188  0.52439209    -0.20140
F1229       F  0.32949274  0.81411651  0.97231792    -0.19810
F1230       F  0.42064264  0.68375789  0.52631821    -0.19860
F1231       F  0.42093355  0.68416916  0.97424653    -0.20190
F1232       F  0.38092115  0.66554371  0.00017695    -0.22860
C1233       C  0.14271679  0.72311350  0.50429637    -0.05700
C1234       C  0.15761666  0.75136570  0.00053583     0.00230
C1235       C  0.13957780  0.77821756  0.99654983    -0.08340
C1236       C  0.10753177  0.77542665  0.99676708    -0.05720
C1237       C  0.09263584  0.74718231  0.50064074     0.00220
C1238       C  0.11067440  0.72031394  0.50440316    -0.08250
C1239       C  0.09679884  0.68862435  0.50871230     0.62130
H1240       H  0.15655061  0.70284274  0.50725091     0.12820
H1241       H  0.09369454  0.79568949  0.99376891     0.12830
C1242       C  0.15344676  0.80986576  0.99182374     0.62360
F1243       F  0.11884808  0.66631002  0.51290430    -0.22810
F1244       F  0.08016783  0.68076681  0.98294233    -0.20140
F1245       F  0.07808376  0.68826566  0.53441765    -0.19810
F1246       F  0.17223057  0.80987889  0.96616723    -0.19860
F1247       F  0.17000793  0.81811314  0.51751480    -0.20190
F1248       F  0.13139311  0.83210186  0.98723009    -0.22860
C1249       C  0.35705133  0.97336803  0.99818703    -0.05700
C1250       C  0.34236231  0.00186763  0.50016943     0.00230
C1251       C  0.36062401  0.52881153  0.50187684    -0.08340
C1252       C  0.39263973  0.52582295  0.50161912    -0.05720
C1253       C  0.40733066  0.99732811  0.49960610     0.00220
C1254       C  0.38907721  0.97039742  0.99777061    -0.08250
C1255       C  0.40268299  0.93846135  0.99518092     0.62130
H1256       H  0.34306800  0.95302511  0.99685174     0.12820
H1257       H  0.40661692  0.54616416  0.50302200     0.12830
C1258       C  0.34704721  0.56080460  0.50398031     0.62360
F1259       F  0.38042226  0.91604407  0.49309384    -0.22810
F1260       F  0.42001638  0.93196190  0.52091143    -0.20140
F1261       F  0.42065345  0.93659468  0.96902420    -0.19810
F1262       F  0.32920118  0.56314316  0.53018275    -0.19860
F1263       F  0.32960921  0.56685965  0.97820605    -0.20190
F1264       F  0.36932330  0.58325318  0.00556265    -0.22860
C1265       C  0.10706512  0.52619331  0.49955033    -0.05700
C1266       C  0.09237477  0.99758138  0.49992908     0.00230
C1267       C  0.11062520  0.97061127  0.00032637    -0.08340
C1268       C  0.14263221  0.97367169  0.99985547    -0.05720
C1269       C  0.15732208  0.00227627  0.49938112     0.00220
C1270       C  0.13908520  0.52924325  0.49946363    -0.08250
C1271       C  0.15271993  0.56130001  0.49953509     0.62130
H1272       H  0.09309446  0.54657226  0.49942407     0.12820
H1273       H  0.15660420  0.95329509  0.00003016     0.12830
C1274       C  0.09706249  0.93852234  0.00146584     0.62360
F1275       F  0.13047902  0.58381003  0.99949013    -0.22810
F1276       F  0.17057873  0.56563413  0.97356718    -0.20140
F1277       F  0.17017894  0.56533421  0.52565755    -0.19810
F1278       F  0.07924404  0.93354464  0.97578841    -0.19860
F1279       F  0.07959025  0.93499947  0.52781634    -0.20190
F1280       F  0.11935250  0.91606568  0.50195170    -0.22860
C1281       C  0.23031767  0.76968503  0.60829982    -0.05700
C1282       C  0.25139075  0.75109702  0.59287148     0.00230
C1283       C  0.27193846  0.73268654  0.60999269    -0.08340
C1284       C  0.27023006  0.73328065  0.64226195    -0.05720
C1285       C  0.24848577  0.75110858  0.65776721     0.00220
C1286       C  0.22820901  0.76987076  0.64058384    -0.08250
C1287       C  0.20482258  0.79046987  0.65600411     0.62130
H1288       H  0.21491507  0.78356570  0.59469744     0.12820
H1289       H  0.28562508  0.71928061  0.65574274     0.12830
C1290       C  0.29607695  0.71305607  0.59443286     0.62360
F1291       F  0.19029824  0.80939356  0.63506090    -0.22810
F1292       F  0.21906590  0.80883002  0.67744189    -0.20140
F1293       F  0.18266289  0.77287619  0.67036261    -0.19810
F1294       F  0.31297837  0.73067060  0.57405850    -0.19860
F1295       F  0.28225088  0.68940176  0.57875379    -0.20190
F1296       F  0.31611972  0.70031416  0.61544858    -0.22860
C1297       C  0.24438508  0.72379132  0.85776506    -0.05700
C1298       C  0.24973086  0.75138867  0.84244744     0.00230
C1299       C  0.25469550  0.77838582  0.85927939    -0.08340
C1300       C  0.25448417  0.77675725  0.89156631    -0.05720
C1301       C  0.24944474  0.74901103  0.90741740     0.00220
C1302       C  0.24420964  0.72183135  0.89004996    -0.08250
C1303       C  0.23826160  0.69075759  0.90482347     0.62130
H1304       H  0.24055861  0.70361053  0.84396443     0.12820
H1305       H  0.25839725  0.79735914  0.90464664     0.12830
C1306       C  0.25962671  0.80877720  0.84300747     0.62360
F1307       F  0.23221067  0.66841486  0.88322528    -0.22810
F1308       F  0.21315712  0.69241607  0.92417452    -0.20140
F1309       F  0.26371620  0.68149509  0.92116623    -0.19810
F1310       F  0.23457565  0.81536387  0.82484252    -0.19860
F1311       F  0.28545445  0.80725547  0.82466191    -0.20190
F1312       F  0.26345223  0.83253117  0.86355236    -0.22860
C1313       C  0.22797358  0.98366230  0.64159719    -0.05700
C1314       C  0.25183992  0.99903165  0.65668818     0.00230
C1315       C  0.27469572  0.51405347  0.63885334    -0.08340
C1316       C  0.27277838  0.51307649  0.60666109    -0.05720
C1317       C  0.24905308  0.99774603  0.59178826     0.00220
C1318       C  0.22616584  0.98270541  0.60928376    -0.08250
C1319       C  0.19942756  0.96678377  0.59391926     0.62130
H1320       H  0.21065305  0.97234237  0.65539555     0.12820
H1321       H  0.28987828  0.52447944  0.59262979     0.12830
C1322       C  0.29989308  0.53278009  0.65342483     0.62360
F1323       F  0.17850415  0.95569763  0.61518006    -0.22810
F1324       F  0.20985476  0.94237550  0.57677158    -0.20140
F1325       F  0.18439868  0.98714662  0.57482372    -0.19810
F1326       F  0.31928204  0.51403970  0.66999762    -0.19860
F1327       F  0.28680972  0.55422672  0.67253437    -0.20190
F1328       F  0.31738053  0.54822729  0.63176290    -0.22860
C1329       C  0.27179413  0.51760241  0.85721108    -0.05700
C1330       C  0.24827410  0.00142178  0.84241836     0.00230
C1331       C  0.22575387  0.98623379  0.86051880    -0.08340
C1332       C  0.22715847  0.98861222  0.89267022    -0.05720
C1333       C  0.25040151  0.00499072  0.90725903     0.00220
C1334       C  0.27341365  0.51945904  0.88948605    -0.08250
C1335       C  0.30014347  0.53561751  0.90457209     0.62130
H1336       H  0.28902695  0.52881648  0.84321460     0.12820
H1337       H  0.21018581  0.97727018  0.90690437     0.12830
C1338       C  0.20171184  0.96569259  0.84637752     0.62360
F1339       F  0.32139239  0.54576807  0.88317196    -0.22810
F1340       F  0.31479097  0.51574985  0.92448831    -0.20140
F1341       F  0.28974232  0.56065784  0.92077859    -0.19810
F1342       F  0.21610741  0.94410042  0.82836681    -0.19860
F1343       F  0.18167857  0.98270617  0.82875410    -0.20190
F1344       F  0.18466128  0.95031830  0.86844301    -0.22860
C1345       C  0.27431449  0.89241588  0.74327002    -0.05700
C1346       C  0.24645497  0.90750597  0.74881291     0.00230
C1347       C  0.21952255  0.88963603  0.75313891    -0.08340
C1348       C  0.22219765  0.85756731  0.75356663    -0.05720
C1349       C  0.25015838  0.84252997  0.74845612     0.00220
C1350       C  0.27671406  0.86038876  0.74230765    -0.08250
C1351       C  0.30750864  0.84632129  0.73409993     0.62130
H1352       H  0.29457419  0.90608133  0.73927930     0.12820
H1353       H  0.20201543  0.84382624  0.75768380     0.12830
C1354       C  0.18784522  0.90363435  0.75671496     0.62360
F1355       F  0.32907305  0.86823209  0.72625390    -0.22810
F1356       F  0.30429318  0.82717728  0.70908505    -0.20140
F1357       F  0.31878414  0.83007562  0.75893170    -0.19810
F1358       F  0.18048638  0.91994404  0.73047044    -0.19860
F1359       F  0.18701856  0.92275062  0.78181159    -0.20190
F1360       F  0.16539880  0.88167740  0.76110680    -0.22860
C1361       C  0.22527114  0.60735644  0.75740293    -0.05700
C1362       C  0.25320540  0.59256517  0.75127973     0.00230
C1363       C  0.27996476  0.61075308  0.74727035    -0.08340
C1364       C  0.27692503  0.64281045  0.74702129    -0.05720
C1365       C  0.24881899  0.65754316  0.75237228     0.00220
C1366       C  0.22261898  0.63935831  0.75891998    -0.08250
C1367       C  0.19204334  0.65308824  0.76834160     0.62130
H1368       H  0.20515289  0.59349305  0.76143986     0.12820
H1369       H  0.29692712  0.65678433  0.74279849     0.12830
C1370       C  0.31181786  0.59711795  0.74388439     0.62360
F1371       F  0.17114319  0.63092839  0.77726142    -0.22810
F1372       F  0.17952900  0.66903633  0.74393760    -0.20140
F1373       F  0.19610116  0.67245762  0.79305400    -0.19810
F1374       F  0.31327115  0.57880771  0.71823512    -0.19860
F1375       F  0.31884098  0.58005494  0.76973957    -0.20190
F1376       F  0.33415268  0.61937228  0.74062939    -0.22860
C1377       C  0.47458110  0.74905423  0.64200783    -0.05700
C1378       C  0.50291274  0.75017496  0.65739671     0.00230
C1379       C  0.03039548  0.75105303  0.63955118    -0.08340
C1380       C  0.02815878  0.75017675  0.60728517    -0.05720
C1381       C  0.49990657  0.74875489  0.59249859     0.00220
C1382       C  0.47263593  0.74852271  0.60980057    -0.08250
C1383       C  0.44170141  0.74788037  0.59408069     0.62130
H1384       H  0.45367575  0.74863886  0.65537087     0.12820
H1385       H  0.04856558  0.75062831  0.59310580     0.12830
C1386       C  0.06204132  0.75297965  0.65382850     0.62360
F1387       F  0.41779671  0.74765130  0.61502566    -0.22810
F1388       F  0.43940187  0.72194948  0.57621315    -0.20140
F1389       F  0.43858758  0.77344323  0.57552460    -0.19810
F1390       F  0.06727779  0.72747065  0.67196050    -0.19860
F1391       F  0.06433691  0.77918370  0.67135178    -0.20190
F1392       F  0.08496855  0.75416944  0.63181501    -0.22860
C1393       C  0.47196963  0.74750455  0.89359995    -0.05700
C1394       C  0.50026146  0.74752303  0.90837861     0.00230
C1395       C  0.02750844  0.74849684  0.89107039    -0.08340
C1396       C  0.02552294  0.74908919  0.85885500    -0.05720
C1397       C  0.49715565  0.74900366  0.84347131     0.00220
C1398       C  0.46967530  0.74835312  0.86133041    -0.08250
C1399       C  0.43796455  0.74868644  0.84706795     0.62130
H1400       H  0.45157404  0.74698086  0.90779347     0.12820
H1401       H  0.04641945  0.74968523  0.84548379     0.12830
C1402       C  0.05845145  0.74894204  0.90680501     0.62360
F1403       F  0.41502098  0.74839238  0.86908947    -0.22810
F1404       F  0.43406746  0.72311397  0.82891665    -0.20140
F1405       F  0.43427940  0.77490301  0.82957072    -0.19810
F1406       F  0.06170821  0.72297768  0.92475192    -0.19860
F1407       F  0.06064356  0.77447132  0.92530261    -0.20190
F1408       F  0.08233697  0.74979376  0.88585292    -0.22860
C1409       C  0.47474357  0.99471497  0.64142626    -0.05700
C1410       C  0.00266525  0.49988678  0.65670274     0.00230
C1411       C  0.02964825  0.50489048  0.63879403    -0.08340
C1412       C  0.02743432  0.50402496  0.60652550    -0.05720
C1413       C  0.99965373  0.49843820  0.59180662     0.00220
C1414       C  0.47277068  0.99408294  0.60921591    -0.08250
C1415       C  0.44212027  0.98941863  0.59362254     0.62130
H1416       H  0.45420530  0.99109270  0.65489977     0.12820
H1417       H  0.04752285  0.50756137  0.59230670     0.12830
C1418       C  0.06067558  0.51139716  0.65305210     0.62360
F1419       F  0.41849570  0.98631411  0.61467225    -0.22810
F1420       F  0.44303298  0.96330138  0.57589276    -0.20140
F1421       F  0.43574931  0.51428771  0.57496610    -0.19810
F1422       F  0.07022904  0.98632850  0.66995163    -0.19860
F1423       F  0.05877962  0.53677912  0.67181136    -0.20190
F1424       F  0.08286610  0.51733785  0.63102961    -0.22860
C1425       C  0.47204061  0.50155160  0.89280522    -0.05700
C1426       C  0.00010674  0.49788794  0.90759430     0.00230
C1427       C  0.02724552  0.99544577  0.89025199    -0.08340
C1428       C  0.02530316  0.99610576  0.85803852    -0.05720
C1429       C  0.99713156  0.49941635  0.84268873     0.00220
C1430       C  0.46983587  0.50244388  0.86053137    -0.08250
C1431       C  0.43846694  0.50692315  0.84621151     0.62130
H1432       H  0.45174501  0.50366117  0.90697858     0.12820
H1433       H  0.04605844  0.99392486  0.84462378     0.12830
C1434       C  0.05806565  0.99246737  0.90591840     0.62360
F1435       F  0.41588656  0.51111018  0.86818519    -0.22810
F1436       F  0.43064476  0.98142001  0.82928732    -0.20140
F1437       F  0.43869238  0.53255950  0.82746955    -0.19810
F1438       F  0.05859993  0.96605888  0.92345751    -0.19860
F1439       F  0.06290546  0.51737002  0.92476678    -0.20190
F1440       F  0.08189962  0.99113571  0.88494187    -0.22860
C1441       C  0.02639443  0.85755472  0.74802234    -0.05700
C1442       C  0.49801891  0.84249055  0.75027283     0.00230
C1443       C  0.47092101  0.86037269  0.75237611    -0.08340
C1444       C  0.47359474  0.89242019  0.75220312    -0.05720
C1445       C  0.50196689  0.90747852  0.74997422     0.00220
C1446       C  0.02906041  0.88960656  0.74779751    -0.08250
C1447       C  0.06081829  0.90369121  0.74503086     0.62130
H1448       H  0.04689666  0.84386193  0.74634674     0.12820
H1449       H  0.45309971  0.90612102  0.75390150     0.12830
C1450       C  0.43913886  0.84631494  0.75495492     0.62360
F1451       F  0.08345107  0.88178089  0.74200871    -0.22810
F1452       F  0.06729617  0.92042975  0.77110613    -0.20140
F1453       F  0.06228412  0.92238291  0.71932553    -0.19810
F1454       F  0.43745467  0.82777878  0.78075449    -0.19860
F1455       F  0.43287283  0.82943074  0.72892178    -0.20190
F1456       F  0.41648511  0.86824530  0.75765577    -0.22860
C1457       C  0.02636749  0.60750080  0.75138931    -0.05700
C1458       C  0.49795736  0.59246746  0.74970535     0.00230
C1459       C  0.47085245  0.61039696  0.74818987    -0.08340
C1460       C  0.47355260  0.64244483  0.74847834    -0.05720
C1461       C  0.50196142  0.65747810  0.75018691     0.00220
C1462       C  0.02906868  0.63954880  0.75166685    -0.08250
C1463       C  0.06090220  0.65355074  0.75357502     0.62130
H1464       H  0.04688483  0.59378468  0.75255161     0.12820
H1465       H  0.45303278  0.65615933  0.74734330     0.12830
C1466       C  0.43902429  0.59639661  0.74620657     0.62360
F1467       F  0.08361822  0.63156781  0.75507624    -0.22810
F1468       F  0.06319231  0.67125405  0.77972978    -0.20140
F1469       F  0.06655493  0.67126824  0.72774648    -0.19810
F1470       F  0.43322182  0.57887218  0.77212946    -0.19860
F1471       F  0.43686931  0.57850121  0.72017339    -0.20190
F1472       F  0.41632770  0.61837917  0.74441822    -0.22860
O1473       O  0.97378796  0.99839528  0.29249958    -0.71700
O1474       O  0.97672992  0.50012159  0.20533678    -0.71910
O1475       O  0.97647990  0.45594917  0.24829952    -0.71770
O1476       O  0.97408519  0.04260656  0.24955451    -0.71780
O1477       O  0.52345572  0.04395856  0.24965207    -0.71740
O1478       O  0.52575781  0.45730588  0.25132327    -0.71760
O1479       O  0.52611152  0.99999949  0.20688064    -0.71700
O1480       O  0.52308740  0.50121904  0.29406562    -0.71890
V1481       V  0.97620038  0.49929829  0.24895285     1.35240
V1482       V  0.52367561  0.50060512  0.25044274     1.35170
C1483       C  0.49786071  0.49978548  0.30834479     0.77380
C1484       C  0.50198007  0.50011396  0.19104619     0.77600
C1485       C  0.00157037  0.44164479  0.24980698     0.77470
C1486       C  0.99832810  0.05827739  0.24959272     0.77430
O1487       O  0.52314374  0.25018081  0.29482598    -0.71700
O1488       O  0.52621680  0.25109796  0.20765595    -0.71910
O1489       O  0.52351214  0.29399742  0.25145653    -0.71770
O1490       O  0.52582694  0.20732791  0.25099303    -0.71780
O1491       O  0.97647886  0.20599631  0.24977413    -0.71740
O1492       O  0.97418524  0.29265854  0.24941992    -0.71760
O1493       O  0.97688748  0.24940015  0.20602603    -0.71700
O1494       O  0.97379494  0.24922089  0.29320718    -0.71890
V1495       V  0.52374117  0.25063724  0.25120269     1.35240
V1496       V  0.97626930  0.24935207  0.24964809     1.35170
C1497       C  0.99788407  0.24953155  0.30909451     0.77540
C1498       C  0.00214715  0.25028489  0.19176619     0.77600
C1499       C  0.99840496  0.30831480  0.25044255     0.77470
C1500       C  0.00159210  0.19166777  0.25035021     0.77430
O1501       O  0.72437170  0.50092435  0.29277651    -0.71700
O1502       O  0.72618254  0.50099874  0.20535508    -0.71910
O1503       O  0.72328577  0.45765150  0.24897832    -0.71770
O1504       O  0.72729093  0.04433428  0.24921138    -0.71780
O1505       O  0.77667987  0.04244703  0.24978609    -0.71740
O1506       O  0.77264843  0.45564618  0.25045562    -0.71760
O1507       O  0.77563995  0.49863602  0.20639617    -0.71700
O1508       O  0.77386846  0.49943261  0.29376525    -0.71890
V1509       V  0.72623545  0.50097019  0.24910327     1.35240
V1510       V  0.77376575  0.49904384  0.25005030     1.35170
C1511       C  0.74876161  0.50030914  0.30824769     0.77540
C1512       C  0.75129220  0.49972182  0.19089129     0.77600
C1513       C  0.74728685  0.44167205  0.24956084     0.77470
C1514       C  0.75260906  0.05837931  0.24988938     0.77430
O1515       O  0.77435411  0.25104174  0.29368098    -0.71700
O1516       O  0.77353936  0.24889613  0.20640866    -0.71910
O1517       O  0.77440383  0.29309098  0.24883728    -0.71770
O1518       O  0.77347326  0.20649199  0.25145152    -0.71780
O1519       O  0.72403856  0.20691049  0.25081657    -0.71740
O1520       O  0.72500458  0.29376195  0.25039579    -0.71760
O1521       O  0.72400268  0.25060235  0.20706942    -0.71700
O1522       O  0.72465621  0.25033771  0.29422797    -0.71890
V1523       V  0.77299202  0.24984284  0.25008707     1.35240
V1524       V  0.72536697  0.25034641  0.25062723     1.35170
C1525       C  0.74959676  0.25112816  0.30870498     0.77540
C1526       C  0.74860239  0.25022554  0.19182505     0.77600
C1527       C  0.74997592  0.30839199  0.24917933     0.77470
C1528       C  0.74858864  0.19172155  0.25163192     0.77430
O1529       O  0.54332069  0.02232603  0.49902801    -0.71700
O1530       O  0.95638530  0.02220575  0.99998697    -0.71910
O1531       O  0.50026177  0.02277812  0.04304633    -0.71770
O1532       O  0.99948322  0.02248861  0.45596177    -0.71780
O1533       O  0.50085106  0.47280863  0.45622230    -0.71740
O1534       O  0.99888428  0.47309961  0.04356483    -0.71760
O1535       O  0.95664291  0.47281466  0.49913605    -0.71700
O1536       O  0.54308931  0.47294286  0.00068190    -0.71890
V1537       V  0.49985814  0.02152117  0.99951098     1.35240
V1538       V  0.99986804  0.47387859  0.99989159     1.35170
C1539       C  0.55819438  0.99748855  0.99990516     0.77540
C1540       C  0.94152139  0.99732484  0.99951986     0.77600
C1541       C  0.49943583  0.99805002  0.05806429     0.77470
C1542       C  0.50031505  0.99767290  0.44133541     0.77430
O1543       O  0.95666200  0.27221139  0.99985451    -0.71700
O1544       O  0.54366494  0.27220738  0.50046599    -0.71910
O1545       O  0.00059873  0.27230445  0.45662529    -0.71770
O1546       O  0.99972348  0.27291511  0.04367923    -0.71780
O1547       O  0.99996313  0.22321414  0.04439172    -0.71740
O1548       O  0.50018842  0.22260106  0.45704745    -0.71760
O1549       O  0.54328830  0.22279964  0.00063368    -0.71700
O1550       O  0.95690054  0.22281507  0.50074830    -0.71890
V1551       V  0.00015982  0.27148304  0.00016338     1.35240
V1552       V  0.00009198  0.22383127  0.50070353     1.35170
C1553       C  0.94179355  0.24731803  0.50022209     0.77540
C1554       C  0.55846011  0.24729998  0.00064189     0.77600
C1555       C  0.00050320  0.24742566  0.44209323     0.77470
C1556       C  0.99970710  0.24823380  0.05878114     0.77430
O1557       O  0.75083762  0.02851531  0.45680751    -0.71700
O1558       O  0.74928753  0.02457026  0.04412135    -0.71910
O1559       O  0.79315177  0.02647175  0.50106511    -0.71770
O1560       O  0.70670931  0.02679649  0.00000219    -0.71780
O1561       O  0.70627076  0.47743870  0.49823001    -0.71740
O1562       O  0.79319657  0.47712935  0.99902323    -0.71760
O1563       O  0.74892125  0.47497191  0.04214536    -0.71700
O1564       O  0.75018668  0.47890720  0.45512219    -0.71890
V1565       V  0.74996182  0.02562589  0.50046678     1.35240
V1566       V  0.74968962  0.47804533  0.99864765     1.35170
C1567       C  0.75081254  0.50426141  0.44114252     0.77540
C1568       C  0.74869940  0.49907661  0.05794125     0.77600
C1569       C  0.80816879  0.50192863  0.00014686     0.77470
C1570       C  0.69150190  0.50231810  0.99912292     0.77430
O1571       O  0.79365895  0.22649511  0.00054149    -0.71700
O1572       O  0.70664173  0.22636375  0.50106671    -0.71910
O1573       O  0.75006294  0.22554568  0.45745567    -0.71770
O1574       O  0.75047554  0.22646964  0.04428308    -0.71780
O1575       O  0.75043676  0.27607293  0.04382154    -0.71740
O1576       O  0.74974897  0.27492791  0.45618105    -0.71760
O1577       O  0.70693610  0.27575368  0.00048656    -0.71700
O1578       O  0.79330674  0.27587142  0.49954455    -0.71890
V1579       V  0.75017901  0.22716392  0.50083302     1.35240
V1580       V  0.75011257  0.27472225  0.50002713     1.35170
C1581       C  0.80847410  0.25140891  0.49996034     0.77540
C1582       C  0.69179788  0.25124929  0.50068104     0.77600
C1583       C  0.74969551  0.24980477  0.44175734     0.77470
C1584       C  0.75094665  0.25125682  0.05891469     0.77430
C1585       C  0.89282921  0.27575392  0.49959909    -0.05700
C1586       C  0.90761449  0.24723491  0.50007447     0.00230
C1587       C  0.88945699  0.22015211  0.00029837    -0.08340
C1588       C  0.85743672  0.22302436  0.00036105    -0.05720
C1589       C  0.84265194  0.25153378  0.49987738     0.00220
C1590       C  0.86080040  0.27861565  0.49935103    -0.08250
C1591       C  0.84707951  0.31061130  0.49846265     0.62130
H1592       H  0.90673588  0.29620330  0.49936409     0.12820
H1593       H  0.84352755  0.20257829  0.00071582     0.12830
C1594       C  0.90313191  0.18812344  0.00027143     0.62360
F1595       F  0.86925958  0.33321929  0.99779481    -0.22810
F1596       F  0.82933421  0.31533189  0.02439209    -0.20140
F1597       F  0.82949275  0.31411651  0.47231792    -0.19810
F1598       F  0.92064263  0.18375789  0.02631817    -0.19860
F1599       F  0.92093356  0.18416916  0.47424655    -0.20190
F1600       F  0.88092117  0.16554371  0.50017697    -0.22860
C1601       C  0.64271678  0.22311350  0.00429638    -0.05700
C1602       C  0.65761668  0.25136570  0.50053582     0.00230
C1603       C  0.63957781  0.27821756  0.49654982    -0.08340
C1604       C  0.60753178  0.27542665  0.49676706    -0.05720
C1605       C  0.59263583  0.24718232  0.00064075     0.00220
C1606       C  0.61067439  0.22031394  0.00440317    -0.08250
C1607       C  0.59679883  0.18862436  0.00871232     0.62130
H1608       H  0.65655060  0.20284274  0.00725092     0.12820
H1609       H  0.59369456  0.29568949  0.49376890     0.12830
C1610       C  0.65344677  0.30986576  0.49182372     0.62360
F1611       F  0.61884807  0.16631003  0.01290433    -0.22810
F1612       F  0.58016784  0.18076681  0.48294231    -0.20140
F1613       F  0.57808375  0.18826567  0.03441767    -0.19810
F1614       F  0.67223059  0.30987889  0.46616722    -0.19860
F1615       F  0.67000793  0.31811314  0.01751481    -0.20190
F1616       F  0.63139312  0.33210186  0.48723007    -0.22860
C1617       C  0.85705133  0.47336804  0.49818703    -0.05700
C1618       C  0.84236231  0.50186764  0.00016942     0.00230
C1619       C  0.86062401  0.02881152  0.00187683    -0.08340
C1620       C  0.89263974  0.02582295  0.00161911    -0.05720
C1621       C  0.90733067  0.49732812  0.99960611     0.00220
C1622       C  0.88907721  0.47039743  0.49777062    -0.08250
C1623       C  0.90268299  0.43846136  0.49518093     0.62130
H1624       H  0.84306800  0.45302512  0.49685174     0.12820
H1625       H  0.90661693  0.04616416  0.00302199     0.12830
C1626       C  0.84704722  0.06080460  0.00398029     0.62360
F1627       F  0.88042227  0.41604408  0.99309383    -0.22810
F1628       F  0.92001638  0.43196191  0.02091143    -0.20140
F1629       F  0.92065345  0.43659469  0.46902420    -0.19810
F1630       F  0.82920119  0.06314317  0.03018273    -0.19860
F1631       F  0.82960921  0.06685964  0.47820606    -0.20190
F1632       F  0.86932330  0.08325316  0.50556268    -0.22860
C1633       C  0.60706512  0.02619330  0.99955033    -0.05700
C1634       C  0.59237478  0.49758139  0.99992909     0.00230
C1635       C  0.61062519  0.47061127  0.50032636    -0.08340
C1636       C  0.64263221  0.47367169  0.49985546    -0.05720
C1637       C  0.65732208  0.50227629  0.99938113     0.00220
C1638       C  0.63908520  0.02924325  0.99946363    -0.08250
C1639       C  0.65271993  0.06130000  0.99953509     0.62130
H1640       H  0.59309446  0.04657225  0.99942407     0.12820
H1641       H  0.65660420  0.45329510  0.50003015     0.12830
C1642       C  0.59706249  0.43852235  0.50146583     0.62360
F1643       F  0.63047902  0.08381001  0.49949017    -0.22810
F1644       F  0.67057873  0.06563412  0.47356720    -0.20140
F1645       F  0.67017895  0.06533421  0.02565754    -0.19810
F1646       F  0.57924403  0.43354465  0.47578840    -0.19860
F1647       F  0.57959025  0.43499950  0.02781636    -0.20190
F1648       F  0.61935250  0.41606570  0.00195174    -0.22860
C1649       C  0.73031766  0.26968503  0.10829982    -0.05700
C1650       C  0.75139076  0.25109704  0.09287147     0.00230
C1651       C  0.77193848  0.23268657  0.10999269    -0.08340
C1652       C  0.77023008  0.23328068  0.14226195    -0.05720
C1653       C  0.74848578  0.25110860  0.15776720     0.00220
C1654       C  0.72820901  0.26987077  0.14058384    -0.08250
C1655       C  0.70482257  0.29046986  0.15600411     0.62130
H1656       H  0.71491506  0.28356570  0.09469744     0.12820
H1657       H  0.78562511  0.21928065  0.15574273     0.12830
C1658       C  0.79607698  0.21305612  0.09443286     0.62360
F1659       F  0.69029821  0.30939354  0.13506089    -0.22810
F1660       F  0.71906587  0.30883002  0.17744189    -0.20140
F1661       F  0.68266288  0.27287616  0.17036260    -0.19810
F1662       F  0.81297838  0.23067066  0.07405849    -0.19860
F1663       F  0.78225092  0.18940180  0.07875379    -0.20190
F1664       F  0.81611975  0.20031422  0.11544857    -0.22860
C1665       C  0.74438509  0.22379132  0.35776506    -0.05700
C1666       C  0.74973087  0.25138867  0.34244744     0.00230
C1667       C  0.75469550  0.27838582  0.35927939    -0.08340
C1668       C  0.75448418  0.27675725  0.39156630    -0.05720
C1669       C  0.74944475  0.24901103  0.40741740     0.00220
C1670       C  0.74420965  0.22183134  0.39004996    -0.08250
C1671       C  0.73826161  0.19075759  0.40482346     0.62130
H1672       H  0.74055862  0.20361053  0.34396442     0.12820
H1673       H  0.75839726  0.29735914  0.40464664     0.12830
C1674       C  0.75962671  0.30877719  0.34300746     0.62360
F1675       F  0.73221067  0.16841486  0.38322528    -0.22810
F1676       F  0.71315713  0.19241607  0.42417452    -0.20140
F1677       F  0.76371621  0.18149509  0.42116623    -0.19810
F1678       F  0.73457565  0.31536387  0.32484251    -0.19860
F1679       F  0.78545445  0.30725547  0.32466191    -0.20190
F1680       F  0.76345223  0.33253117  0.36355235    -0.22860
C1681       C  0.72797359  0.48366230  0.14159719    -0.05700
C1682       C  0.75183992  0.49903165  0.15668818     0.00230
C1683       C  0.77469573  0.01405347  0.13885334    -0.08340
C1684       C  0.77277839  0.01307648  0.10666108    -0.05720
C1685       C  0.74905309  0.49774603  0.09178826     0.00220
C1686       C  0.72616585  0.48270542  0.10928376    -0.08250
C1687       C  0.69942757  0.46678377  0.09391926     0.62130
H1688       H  0.71065306  0.47234237  0.15539555     0.12820
H1689       H  0.78987829  0.02447943  0.09262979     0.12830
C1690       C  0.79989309  0.03278008  0.15342483     0.62360
F1691       F  0.67850416  0.45569762  0.11518006    -0.22810
F1692       F  0.70985478  0.44237550  0.07677158    -0.20140
F1693       F  0.68439870  0.48714662  0.07482371    -0.19810
F1694       F  0.81928204  0.01403968  0.16999762    -0.19860
F1695       F  0.78680974  0.05422672  0.17253437    -0.20190
F1696       F  0.81738055  0.04822728  0.13176290    -0.22860
C1697       C  0.77179412  0.01760240  0.35721108    -0.05700
C1698       C  0.74827410  0.50142178  0.34241836     0.00230
C1699       C  0.72575387  0.48623380  0.36051880    -0.08340
C1700       C  0.72715847  0.48861223  0.39267022    -0.05720
C1701       C  0.75040151  0.50499073  0.40725903     0.00220
C1702       C  0.77341364  0.01945903  0.38948605    -0.08250
C1703       C  0.80014346  0.03561750  0.40457209     0.62130
H1704       H  0.78902693  0.02881648  0.34321460     0.12820
H1705       H  0.71018581  0.47727019  0.40690437     0.12830
C1706       C  0.70171184  0.46569260  0.34637752     0.62360
F1707       F  0.82139237  0.04576806  0.38317196    -0.22810
F1708       F  0.81479097  0.01574985  0.42448831    -0.20140
F1709       F  0.78974230  0.06065783  0.42077860    -0.19810
F1710       F  0.71610741  0.44410042  0.32836681    -0.19860
F1711       F  0.68167857  0.48270617  0.32875410    -0.20190
F1712       F  0.68466128  0.45031831  0.36844301    -0.22860
C1713       C  0.77431449  0.39241588  0.24327001    -0.05700
C1714       C  0.74645497  0.40750597  0.24881291     0.00230
C1715       C  0.71952255  0.38963603  0.25313891    -0.08340
C1716       C  0.72219766  0.35756732  0.25356664    -0.05720
C1717       C  0.75015839  0.34252998  0.24845612     0.00220
C1718       C  0.77671406  0.36038877  0.24230765    -0.08250
C1719       C  0.80750864  0.34632129  0.23409992     0.62130
H1720       H  0.79457419  0.40608134  0.23927930     0.12820
H1721       H  0.70201544  0.34382624  0.25768381     0.12830
C1722       C  0.68784522  0.40363435  0.25671496     0.62360
F1723       F  0.82907304  0.36823210  0.22625388    -0.22810
F1724       F  0.80429318  0.32717728  0.20908504    -0.20140
F1725       F  0.81878415  0.33007563  0.25893169    -0.19810
F1726       F  0.68048638  0.41994404  0.23047045    -0.19860
F1727       F  0.68701856  0.42275063  0.28181159    -0.20190
F1728       F  0.66539881  0.38167740  0.26110681    -0.22860
C1729       C  0.72527115  0.10735645  0.25740293    -0.05700
C1730       C  0.75320540  0.09256517  0.25127973     0.00230
C1731       C  0.77996477  0.11075308  0.24727035    -0.08340
C1732       C  0.77692504  0.14281045  0.24702128    -0.05720
C1733       C  0.74881900  0.15754316  0.25237227     0.00220
C1734       C  0.72261899  0.13935831  0.25891998    -0.08250
C1735       C  0.69204335  0.15308825  0.26834161     0.62130
H1736       H  0.70515290  0.09349305  0.26143986     0.12820
H1737       H  0.79692712  0.15678433  0.24279848     0.12830
C1738       C  0.81181787  0.09711795  0.24388439     0.62360
F1739       F  0.67114320  0.13092840  0.27726144    -0.22810
F1740       F  0.67952901  0.16903633  0.24393761    -0.20140
F1741       F  0.69610118  0.17245763  0.29305400    -0.19810
F1742       F  0.81327116  0.07880770  0.21823513    -0.19860
F1743       F  0.81884098  0.08005494  0.26973958    -0.20190
F1744       F  0.83415269  0.11937228  0.24062939    -0.22860
C1745       C  0.97458110  0.24905423  0.14200783    -0.05700
C1746       C  0.00291274  0.25017497  0.15739671     0.00230
C1747       C  0.53039546  0.25105303  0.13955118    -0.08340
C1748       C  0.52815876  0.25017676  0.10728517    -0.05720
C1749       C  0.99990656  0.24875490  0.09249859     0.00220
C1750       C  0.97263592  0.24852270  0.10980057    -0.08250
C1751       C  0.94170140  0.24788035  0.09408070     0.62130
H1752       H  0.95367575  0.24863885  0.15537088     0.12820
H1753       H  0.54856557  0.25062831  0.09310579     0.12830
C1754       C  0.56204130  0.25297966  0.15382850     0.62360
F1755       F  0.91779670  0.24765128  0.11502567    -0.22810
F1756       F  0.93940186  0.22194945  0.07621316    -0.20140
F1757       F  0.93858756  0.27344321  0.07552460    -0.19810
F1758       F  0.56727777  0.22747065  0.17196050    -0.19860
F1759       F  0.56433690  0.27918370  0.17135177    -0.20190
F1760       F  0.58496853  0.25416944  0.13181501    -0.22860
C1761       C  0.97196964  0.24750454  0.39359995    -0.05700
C1762       C  0.00026146  0.24752303  0.40837861     0.00230
C1763       C  0.52750844  0.24849684  0.39107038    -0.08340
C1764       C  0.52552294  0.24908919  0.35885499    -0.05720
C1765       C  0.99715566  0.24900365  0.34347131     0.00220
C1766       C  0.96967530  0.24835311  0.36133041    -0.08250
C1767       C  0.93796455  0.24868643  0.34706795     0.62130
H1768       H  0.95157405  0.24698085  0.40779347     0.12820
H1769       H  0.54641944  0.24968523  0.34548378     0.12830
C1770       C  0.55845145  0.24894204  0.40680500     0.62360
F1771       F  0.91502099  0.24839235  0.36908947    -0.22810
F1772       F  0.93406747  0.22311395  0.32891665    -0.20140
F1773       F  0.93427940  0.27490299  0.32957072    -0.19810
F1774       F  0.56170822  0.22297768  0.42475192    -0.19860
F1775       F  0.56064356  0.27447132  0.42530260    -0.20190
F1776       F  0.58233697  0.24979376  0.38585291    -0.22860
C1777       C  0.97474360  0.49471497  0.14142626    -0.05700
C1778       C  0.50266525  0.99988678  0.15670274     0.00230
C1779       C  0.52964826  0.00489046  0.13879403    -0.08340
C1780       C  0.52743433  0.00402494  0.10652550    -0.05720
C1781       C  0.49965373  0.99843820  0.09180662     0.00220
C1782       C  0.97277070  0.49408294  0.10921591    -0.08250
C1783       C  0.94212029  0.48941862  0.09362254     0.62130
H1784       H  0.95420532  0.49109269  0.15489977     0.12820
H1785       H  0.54752286  0.00756133  0.09230670     0.12830
C1786       C  0.56067559  0.01139712  0.15305209     0.62360
F1787       F  0.91849572  0.48631410  0.11467225    -0.22810
F1788       F  0.94303301  0.46330138  0.07589276    -0.20140
F1789       F  0.93574930  0.01428774  0.07496609    -0.19810
F1790       F  0.57022903  0.48632852  0.16995163    -0.19860
F1791       F  0.55877966  0.03677908  0.17181135    -0.20190
F1792       F  0.58286611  0.01733779  0.13102961    -0.22860
C1793       C  0.97204060  0.00155160  0.39280522    -0.05700
C1794       C  0.50010675  0.99788794  0.40759430     0.00230
C1795       C  0.52724551  0.49544575  0.39025198    -0.08340
C1796       C  0.52530315  0.49610575  0.35803852    -0.05720
C1797       C  0.49713158  0.99941636  0.34268873     0.00220
C1798       C  0.96983585  0.00244389  0.36053138    -0.08250
C1799       C  0.93846693  0.00692317  0.34621152     0.62130
H1800       H  0.95174500  0.00366117  0.40697858     0.12820
H1801       H  0.54605842  0.49392482  0.34462378     0.12830
C1802       C  0.55806563  0.49246732  0.40591839     0.62360
F1803       F  0.91588655  0.01111022  0.36818520    -0.22810
F1804       F  0.93064475  0.48142012  0.32928732    -0.20140
F1805       F  0.93869238  0.03255953  0.32746955    -0.19810
F1806       F  0.55859990  0.46605883  0.42345750    -0.19860
F1807       F  0.56290547  0.01737001  0.42476679    -0.20190
F1808       F  0.58189960  0.49113565  0.38494186    -0.22860
C1809       C  0.52639441  0.35755472  0.24802234    -0.05700
C1810       C  0.99801892  0.34249055  0.25027285     0.00230
C1811       C  0.97092102  0.36037269  0.25237615    -0.08340
C1812       C  0.97359476  0.39242019  0.25220316    -0.05720
C1813       C  0.00196691  0.40747853  0.24997423     0.00220
C1814       C  0.52906039  0.38960656  0.24779750    -0.08250
C1815       C  0.56081827  0.40369121  0.24503083     0.62130
H1816       H  0.54689664  0.34386193  0.24634672     0.12820
H1817       H  0.95309973  0.40612102  0.25390156     0.12830
C1818       C  0.93913888  0.34631495  0.25495498     0.62360
F1819       F  0.58345105  0.38178089  0.24200866    -0.22810
F1820       F  0.56729617  0.42042975  0.27110611    -0.20140
F1821       F  0.56228408  0.42238292  0.21932551    -0.19810
F1822       F  0.93745471  0.32777878  0.28075455    -0.19860
F1823       F  0.93287282  0.32943075  0.22892185    -0.20190
F1824       F  0.91648513  0.36824531  0.25765586    -0.22860
C1825       C  0.52636749  0.10750080  0.25138928    -0.05700
C1826       C  0.99795734  0.09246746  0.24970534     0.00230
C1827       C  0.97085244  0.11039696  0.24818986    -0.08340
C1828       C  0.97355259  0.14244483  0.24847833    -0.05720
C1829       C  0.00196141  0.15747810  0.25018689     0.00220
C1830       C  0.52906868  0.13954880  0.25166682    -0.08250
C1831       C  0.56090221  0.15355074  0.25357499     0.62130
H1832       H  0.54688484  0.09378468  0.25255158     0.12820
H1833       H  0.95303278  0.15615933  0.24734328     0.12830
C1834       C  0.93902428  0.09639661  0.24620655     0.62360
F1835       F  0.58361822  0.13156782  0.25507619    -0.22810
F1836       F  0.56319233  0.17125405  0.27972974    -0.20140
F1837       F  0.56655492  0.17126825  0.22774644    -0.19810
F1838       F  0.93322180  0.07887219  0.27212944    -0.19860
F1839       F  0.93686929  0.07850121  0.22017338    -0.20190
F1840       F  0.91632769  0.11837918  0.24441821    -0.22860
O1841       O  0.97378799  0.99839528  0.79249958    -0.71700
O1842       O  0.97672990  0.50012160  0.70533678    -0.71910
O1843       O  0.97647988  0.45594917  0.74829952    -0.71770
O1844       O  0.97408521  0.04260655  0.74955452    -0.71780
O1845       O  0.52345570  0.04395856  0.74965208    -0.71740
O1846       O  0.52575783  0.45730588  0.75132326    -0.71760
O1847       O  0.52611150  0.99999950  0.70688064    -0.71700
O1848       O  0.52308741  0.50121903  0.79406562    -0.71890
V1849       V  0.97620036  0.49929829  0.74895285     1.35240
V1850       V  0.52367563  0.50060512  0.75044274     1.35170
C1851       C  0.49786073  0.49978547  0.80834479     0.77380
C1852       C  0.50198009  0.50011397  0.69104619     0.77600
C1853       C  0.00157035  0.44164479  0.74980697     0.77470
C1854       C  0.99832812  0.05827739  0.74959272     0.77430
O1855       O  0.52314376  0.25018082  0.79482599    -0.71700
O1856       O  0.52621681  0.25109794  0.70765595    -0.71910
O1857       O  0.52351216  0.29399742  0.75145651    -0.71770
O1858       O  0.52582694  0.20732791  0.75099305    -0.71780
O1859       O  0.97647887  0.20599631  0.74977413    -0.71740
O1860       O  0.97418524  0.29265853  0.74941992    -0.71760
O1861       O  0.97688748  0.24940014  0.70602602    -0.71700
O1862       O  0.97379494  0.24922089  0.79320718    -0.71890
V1863       V  0.52374118  0.25063723  0.75120269     1.35240
V1864       V  0.97626930  0.24935207  0.74964809     1.35170
C1865       C  0.99788407  0.24953156  0.80909451     0.77540
C1866       C  0.00214715  0.25028489  0.69176619     0.77600
C1867       C  0.99840495  0.30831480  0.75044254     0.77470
C1868       C  0.00159211  0.19166777  0.75035022     0.77430
O1869       O  0.72437169  0.50092435  0.79277651    -0.71700
O1870       O  0.72618253  0.50099873  0.70535508    -0.71910
O1871       O  0.72328576  0.45765150  0.74897832    -0.71770
O1872       O  0.72729093  0.04433428  0.74921139    -0.71780
O1873       O  0.77667987  0.04244703  0.74978609    -0.71740
O1874       O  0.77264842  0.45564618  0.75045562    -0.71760
O1875       O  0.77563994  0.49863601  0.70639617    -0.71700
O1876       O  0.77386845  0.49943261  0.79376525    -0.71890
V1877       V  0.72623544  0.50097018  0.74910327     1.35240
V1878       V  0.77376574  0.49904383  0.75005030     1.35170
C1879       C  0.74876160  0.50030914  0.80824769     0.77540
C1880       C  0.75129218  0.49972182  0.69089129     0.77600
C1881       C  0.74728684  0.44167205  0.74956084     0.77470
C1882       C  0.75260906  0.05837931  0.74988938     0.77430
O1883       O  0.77435412  0.25104174  0.79368098    -0.71700
O1884       O  0.77353936  0.24889613  0.70640866    -0.71910
O1885       O  0.77440383  0.29309098  0.74883728    -0.71770
O1886       O  0.77347326  0.20649199  0.75145152    -0.71780
O1887       O  0.72403856  0.20691048  0.75081657    -0.71740
O1888       O  0.72500458  0.29376194  0.75039579    -0.71760
O1889       O  0.72400268  0.25060235  0.70706942    -0.71700
O1890       O  0.72465621  0.25033770  0.79422797    -0.71890
V1891       V  0.77299202  0.24984284  0.75008707     1.35240
V1892       V  0.72536697  0.25034641  0.75062723     1.35170
C1893       C  0.74959676  0.25112815  0.80870498     0.77540
C1894       C  0.74860239  0.25022554  0.69182505     0.77600
C1895       C  0.74997592  0.30839199  0.74917933     0.77470
C1896       C  0.74858864  0.19172155  0.75163191     0.77430
O1897       O  0.54332070  0.02232603  0.99902801    -0.71700
O1898       O  0.95638529  0.02220575  0.49998699    -0.71910
O1899       O  0.50026176  0.02277812  0.54304633    -0.71770
O1900       O  0.99948324  0.02248861  0.95596177    -0.71780
O1901       O  0.50085105  0.47280864  0.95622231    -0.71740
O1902       O  0.99888428  0.47309961  0.54356483    -0.71760
O1903       O  0.95664291  0.47281467  0.99913605    -0.71700
O1904       O  0.54308931  0.47294285  0.50068190    -0.71890
V1905       V  0.49985813  0.02152117  0.49951098     1.35240
V1906       V  0.99986805  0.47387859  0.49989159     1.35170
C1907       C  0.55819437  0.99748856  0.49990517     0.77540
C1908       C  0.94152138  0.99732484  0.49951987     0.77600
C1909       C  0.49943581  0.99805002  0.55806429     0.77470
C1910       C  0.50031505  0.99767289  0.94133541     0.77430
O1911       O  0.95666200  0.27221138  0.49985450    -0.71700
O1912       O  0.54366493  0.27220739  0.00046600    -0.71910
O1913       O  0.00059872  0.27230446  0.95662530    -0.71770
O1914       O  0.99972348  0.27291511  0.54367923    -0.71780
O1915       O  0.99996314  0.22321414  0.54439172    -0.71740
O1916       O  0.50018843  0.22260108  0.95704745    -0.71760
O1917       O  0.54328830  0.22279963  0.50063368    -0.71700
O1918       O  0.95690053  0.22281508  0.00074829    -0.71890
V1919       V  0.00015982  0.27148304  0.50016338     1.35240
V1920       V  0.00009198  0.22383128  0.00070352     1.35170
C1921       C  0.94179354  0.24731804  0.00022208     0.77540
C1922       C  0.55846012  0.24729998  0.50064188     0.77600
C1923       C  0.00050320  0.24742567  0.94209323     0.77470
C1924       C  0.99970711  0.24823381  0.55878114     0.77430
O1925       O  0.75083763  0.02851532  0.95680751    -0.71700
O1926       O  0.74928753  0.02457026  0.54412135    -0.71910
O1927       O  0.79315178  0.02647175  0.00106511    -0.71770
O1928       O  0.70670930  0.02679649  0.50000219    -0.71780
O1929       O  0.70627076  0.47743872  0.99823001    -0.71740
O1930       O  0.79319658  0.47712935  0.49902324    -0.71760
O1931       O  0.74892125  0.47497190  0.54214536    -0.71700
O1932       O  0.75018667  0.47890721  0.95512219    -0.71890
V1933       V  0.74996183  0.02562589  0.00046678     1.35240
V1934       V  0.74968962  0.47804532  0.49864765     1.35170
C1935       C  0.75081253  0.50426143  0.94114252     0.77540
C1936       C  0.74869940  0.49907660  0.55794125     0.77600
C1937       C  0.80816879  0.50192862  0.50014686     0.77470
C1938       C  0.69150190  0.50231808  0.49912291     0.77430
O1939       O  0.79365895  0.22649510  0.50054149    -0.71700
O1940       O  0.70664173  0.22636376  0.00106671    -0.71910
O1941       O  0.75006294  0.22554568  0.95745567    -0.71770
O1942       O  0.75047554  0.22646963  0.54428308    -0.71780
O1943       O  0.75043676  0.27607292  0.54382154    -0.71740
O1944       O  0.74974896  0.27492791  0.95618105    -0.71760
O1945       O  0.70693611  0.27575367  0.50048656    -0.71700
O1946       O  0.79330673  0.27587143  0.99954454    -0.71890
V1947       V  0.75017901  0.22716392  0.00083303     1.35240
V1948       V  0.75011257  0.27472226  0.00002713     1.35170
C1949       C  0.80847409  0.25140892  0.99996033     0.77540
C1950       C  0.69179788  0.25124930  0.00068105     0.77600
C1951       C  0.74969550  0.24980477  0.94175734     0.77470
C1952       C  0.75094665  0.25125681  0.55891469     0.77430
C1953       C  0.89282920  0.27575393  0.99959908    -0.05700
C1954       C  0.90761449  0.24723492  0.00007445     0.00230
C1955       C  0.88945699  0.22015210  0.50029839    -0.08340
C1956       C  0.85743672  0.22302435  0.50036107    -0.05720
C1957       C  0.84265193  0.25153379  0.99987737     0.00220
C1958       C  0.86080040  0.27861566  0.99935102    -0.08250
C1959       C  0.84707951  0.31061130  0.99846265     0.62130
H1960       H  0.90673587  0.29620331  0.99936409     0.12820
H1961       H  0.84352756  0.20257828  0.50071584     0.12830
C1962       C  0.90313192  0.18812343  0.50027146     0.62360
F1963       F  0.86925958  0.33321928  0.49779481    -0.22810
F1964       F  0.82933421  0.31533188  0.52439209    -0.20140
F1965       F  0.82949275  0.31411653  0.97231792    -0.19810
F1966       F  0.92064263  0.18375789  0.52631820    -0.19860
F1967       F  0.92093356  0.18416918  0.97424651    -0.20190
F1968       F  0.88092116  0.16554372  0.00017693    -0.22860
C1969       C  0.64271679  0.22311350  0.50429637    -0.05700
C1970       C  0.65761667  0.25136571  0.00053583     0.00230
C1971       C  0.63957781  0.27821756  0.99654983    -0.08340
C1972       C  0.60753178  0.27542665  0.99676707    -0.05720
C1973       C  0.59263584  0.24718232  0.50064074     0.00220
C1974       C  0.61067440  0.22031394  0.50440316    -0.08250
C1975       C  0.59679884  0.18862435  0.50871230     0.62130
H1976       H  0.65655061  0.20284274  0.50725091     0.12820
H1977       H  0.59369455  0.29568949  0.99376891     0.12830
C1978       C  0.65344677  0.30986577  0.99182373     0.62360
F1979       F  0.61884808  0.16631003  0.51290431    -0.22810
F1980       F  0.58016784  0.18076681  0.98294233    -0.20140
F1981       F  0.57808376  0.18826566  0.53441765    -0.19810
F1982       F  0.67223058  0.30987889  0.96616723    -0.19860
F1983       F  0.67000793  0.31811314  0.51751481    -0.20190
F1984       F  0.63139312  0.33210187  0.98723008    -0.22860
C1985       C  0.85705133  0.47336804  0.99818703    -0.05700
C1986       C  0.84236232  0.50186764  0.50016943     0.00230
C1987       C  0.86062400  0.02881152  0.50187684    -0.08340
C1988       C  0.89263973  0.02582294  0.50161912    -0.05720
C1989       C  0.90733067  0.49732812  0.49960611     0.00220
C1990       C  0.88907721  0.47039743  0.99777061    -0.08250
C1991       C  0.90268298  0.43846137  0.99518093     0.62130
H1992       H  0.84306799  0.45302512  0.99685174     0.12820
H1993       H  0.90661692  0.04616415  0.50302200     0.12830
C1994       C  0.84704721  0.06080459  0.50398031     0.62360
F1995       F  0.88042227  0.41604408  0.49309383    -0.22810
F1996       F  0.92001638  0.43196190  0.52091143    -0.20140
F1997       F  0.92065345  0.43659469  0.96902420    -0.19810
F1998       F  0.82920118  0.06314316  0.53018275    -0.19860
F1999       F  0.82960921  0.06685964  0.97820605    -0.20190
F2000       F  0.86932331  0.08325317  0.00556265    -0.22860
C2001       C  0.60706511  0.02619331  0.49955034    -0.05700
C2002       C  0.59237478  0.49758138  0.49992909     0.00230
C2003       C  0.61062519  0.47061129  0.00032638    -0.08340
C2004       C  0.64263220  0.47367171  0.99985548    -0.05720
C2005       C  0.65732209  0.50227627  0.49938112     0.00220
C2006       C  0.63908519  0.02924325  0.49946364    -0.08250
C2007       C  0.65271993  0.06130001  0.49953511     0.62130
H2008       H  0.59309446  0.04657226  0.49942410     0.12820
H2009       H  0.65660419  0.45329511  0.00003017     0.12830
C2010       C  0.59706248  0.43852236  0.00146585     0.62360
F2011       F  0.63047902  0.08381001  0.99949014    -0.22810
F2012       F  0.67057874  0.06563411  0.97356718    -0.20140
F2013       F  0.67017894  0.06533421  0.52565756    -0.19810
F2014       F  0.57924403  0.43354466  0.97578842    -0.19860
F2015       F  0.57959025  0.43499947  0.52781635    -0.20190
F2016       F  0.61935250  0.41606568  0.50195171    -0.22860
C2017       C  0.73031767  0.26968503  0.60829982    -0.05700
C2018       C  0.75139075  0.25109703  0.59287147     0.00230
C2019       C  0.77193846  0.23268654  0.60999269    -0.08340
C2020       C  0.77023006  0.23328065  0.64226195    -0.05720
C2021       C  0.74848578  0.25110859  0.65776720     0.00220
C2022       C  0.72820902  0.26987077  0.64058384    -0.08250
C2023       C  0.70482260  0.29046989  0.65600411     0.62130
H2024       H  0.71491509  0.28356571  0.59469744     0.12820
H2025       H  0.78562508  0.21928061  0.65574273     0.12830
C2026       C  0.79607694  0.21305606  0.59443286     0.62360
F2027       F  0.69029826  0.30939358  0.63506090    -0.22810
F2028       F  0.71906592  0.30883003  0.67744189    -0.20140
F2029       F  0.68266290  0.27287621  0.67036261    -0.19810
F2030       F  0.81297836  0.23067058  0.57405849    -0.19860
F2031       F  0.78225086  0.18940175  0.57875379    -0.20190
F2032       F  0.81611971  0.20031415  0.61544858    -0.22860
C2033       C  0.74438510  0.22379131  0.85776506    -0.05700
C2034       C  0.74973088  0.25138866  0.84244744     0.00230
C2035       C  0.75469550  0.27838581  0.85927939    -0.08340
C2036       C  0.75448417  0.27675725  0.89156630    -0.05720
C2037       C  0.74944475  0.24901103  0.90741740     0.00220
C2038       C  0.74420967  0.22183134  0.89004996    -0.08250
C2039       C  0.73826164  0.19075759  0.90482347     0.62130
H2040       H  0.74055864  0.20361052  0.84396442     0.12820
H2041       H  0.75839725  0.29735914  0.90464663     0.12830
C2042       C  0.75962671  0.30877719  0.84300746     0.62360
F2043       F  0.73221072  0.16841485  0.88322528    -0.22810
F2044       F  0.71315715  0.19241606  0.92417452    -0.20140
F2045       F  0.76371624  0.18149510  0.92116624    -0.19810
F2046       F  0.73457565  0.31536386  0.82484251    -0.19860
F2047       F  0.78545445  0.30725547  0.82466191    -0.20190
F2048       F  0.76345222  0.33253117  0.86355235    -0.22860
C2049       C  0.72797358  0.48366229  0.64159718    -0.05700
C2050       C  0.75183991  0.49903165  0.65668818     0.00230
C2051       C  0.77469570  0.01405350  0.63885335    -0.08340
C2052       C  0.77277837  0.01307651  0.60666109    -0.05720
C2053       C  0.74905309  0.49774603  0.59178826     0.00220
C2054       C  0.72616585  0.48270541  0.60928376    -0.08250
C2055       C  0.69942757  0.46678377  0.59391926     0.62130
H2056       H  0.71065305  0.47234236  0.65539554     0.12820
H2057       H  0.78987826  0.02447948  0.59262980     0.12830
C2058       C  0.79989305  0.03278014  0.65342484     0.62360
F2059       F  0.67850416  0.45569762  0.61518006    -0.22810
F2060       F  0.70985477  0.44237550  0.57677158    -0.20140
F2061       F  0.68439869  0.48714662  0.57482371    -0.19810
F2062       F  0.81928202  0.01403977  0.66999763    -0.19860
F2063       F  0.78680967  0.05422677  0.67253437    -0.20190
F2064       F  0.81738049  0.04822736  0.63176290    -0.22860
C2065       C  0.77179413  0.01760239  0.85721108    -0.05700
C2066       C  0.74827409  0.50142179  0.84241836     0.00230
C2067       C  0.72575384  0.48623382  0.86051881    -0.08340
C2068       C  0.72715845  0.48861226  0.89267022    -0.05720
C2069       C  0.75040149  0.50499074  0.90725903     0.00220
C2070       C  0.77341365  0.01945903  0.88948605    -0.08250
C2071       C  0.80014347  0.03561750  0.90457209     0.62130
H2072       H  0.78902695  0.02881647  0.84321460     0.12820
H2073       H  0.71018578  0.47727023  0.90690437     0.12830
C2074       C  0.70171180  0.46569264  0.84637753     0.62360
F2075       F  0.82139238  0.04576807  0.88317196    -0.22810
F2076       F  0.81479098  0.01574985  0.92448831    -0.20140
F2077       F  0.78974231  0.06065783  0.92077859    -0.19810
F2078       F  0.71610735  0.44410045  0.82836682    -0.19860
F2079       F  0.68167854  0.48270623  0.82875411    -0.20190
F2080       F  0.68466123  0.45031836  0.86844302    -0.22860
C2081       C  0.77431449  0.39241588  0.74327002    -0.05700
C2082       C  0.74645497  0.40750597  0.74881291     0.00230
C2083       C  0.71952255  0.38963602  0.75313891    -0.08340
C2084       C  0.72219766  0.35756731  0.75356663    -0.05720
C2085       C  0.75015839  0.34252997  0.74845612     0.00220
C2086       C  0.77671406  0.36038876  0.74230765    -0.08250
C2087       C  0.80750864  0.34632129  0.73409993     0.62130
H2088       H  0.79457419  0.40608134  0.73927930     0.12820
H2089       H  0.70201544  0.34382623  0.75768381     0.12830
C2090       C  0.68784522  0.40363434  0.75671496     0.62360
F2091       F  0.82907304  0.36823210  0.72625389    -0.22810
F2092       F  0.80429318  0.32717728  0.70908504    -0.20140
F2093       F  0.81878415  0.33007563  0.75893169    -0.19810
F2094       F  0.68048637  0.41994403  0.73047044    -0.19860
F2095       F  0.68701856  0.42275062  0.78181159    -0.20190
F2096       F  0.66539880  0.38167739  0.76110680    -0.22860
C2097       C  0.72527115  0.10735644  0.75740293    -0.05700
C2098       C  0.75320540  0.09256516  0.75127973     0.00230
C2099       C  0.77996477  0.11075307  0.74727035    -0.08340
C2100       C  0.77692504  0.14281045  0.74702128    -0.05720
C2101       C  0.74881900  0.15754315  0.75237227     0.00220
C2102       C  0.72261899  0.13935831  0.75891997    -0.08250
C2103       C  0.69204335  0.15308824  0.76834159     0.62130
H2104       H  0.70515289  0.09349305  0.76143985     0.12820
H2105       H  0.79692713  0.15678432  0.74279849     0.12830
C2106       C  0.81181787  0.09711794  0.74388440     0.62360
F2107       F  0.67114319  0.13092840  0.77726140    -0.22810
F2108       F  0.67952902  0.16903633  0.74393758    -0.20140
F2109       F  0.69610116  0.17245762  0.79305398    -0.19810
F2110       F  0.81327116  0.07880769  0.71823514    -0.19860
F2111       F  0.81884098  0.08005493  0.76973959    -0.20190
F2112       F  0.83415269  0.11937227  0.74062940    -0.22860
C2113       C  0.97458110  0.24905423  0.64200783    -0.05700
C2114       C  0.00291274  0.25017497  0.65739671     0.00230
C2115       C  0.53039548  0.25105304  0.63955118    -0.08340
C2116       C  0.52815878  0.25017677  0.60728517    -0.05720
C2117       C  0.99990657  0.24875491  0.59249859     0.00220
C2118       C  0.97263593  0.24852271  0.60980057    -0.08250
C2119       C  0.94170141  0.24788036  0.59408069     0.62130
H2120       H  0.95367576  0.24863885  0.65537087     0.12820
H2121       H  0.54856558  0.25062834  0.59310579     0.12830
C2122       C  0.56204132  0.25297969  0.65382850     0.62360
F2123       F  0.91779671  0.24765129  0.61502566    -0.22810
F2124       F  0.93940188  0.22194947  0.57621315    -0.20140
F2125       F  0.93858757  0.27344322  0.57552461    -0.19810
F2126       F  0.56727780  0.22747068  0.67196049    -0.19860
F2127       F  0.56433690  0.27918373  0.67135178    -0.20190
F2128       F  0.58496854  0.25416949  0.63181501    -0.22860
C2129       C  0.97196964  0.24750457  0.89359995    -0.05700
C2130       C  0.00026146  0.24752305  0.90837861     0.00230
C2131       C  0.52750844  0.24849686  0.89107038    -0.08340
C2132       C  0.52552295  0.24908920  0.85885499    -0.05720
C2133       C  0.99715566  0.24900367  0.84347131     0.00220
C2134       C  0.96967530  0.24835314  0.86133041    -0.08250
C2135       C  0.93796455  0.24868647  0.84706795     0.62130
H2136       H  0.95157405  0.24698089  0.90779347     0.12820
H2137       H  0.54641945  0.24968524  0.84548378     0.12830
C2138       C  0.55845146  0.24894206  0.90680501     0.62360
F2139       F  0.91502099  0.24839242  0.86908948    -0.22810
F2140       F  0.93406745  0.22311399  0.82891666    -0.20140
F2141       F  0.93427942  0.27490304  0.82957072    -0.19810
F2142       F  0.56170822  0.22297770  0.92475192    -0.19860
F2143       F  0.56064356  0.27447134  0.92530260    -0.20190
F2144       F  0.58233698  0.24979377  0.88585292    -0.22860
C2145       C  0.97474359  0.49471497  0.64142626    -0.05700
C2146       C  0.50266523  0.99988678  0.65670274     0.00230
C2147       C  0.52964823  0.00489048  0.63879403    -0.08340
C2148       C  0.52743430  0.00402496  0.60652550    -0.05720
C2149       C  0.49965371  0.99843820  0.59180662     0.00220
C2150       C  0.97277070  0.49408294  0.60921591    -0.08250
C2151       C  0.94212029  0.48941862  0.59362254     0.62130
H2152       H  0.95420531  0.49109270  0.65489976     0.12820
H2153       H  0.54752283  0.00756136  0.59230670     0.12830
C2154       C  0.56067556  0.01139716  0.65305209     0.62360
F2155       F  0.91849572  0.48631410  0.61467224    -0.22810
F2156       F  0.94303301  0.46330138  0.57589276    -0.20140
F2157       F  0.93574930  0.01428770  0.57496610    -0.19810
F2158       F  0.57022904  0.48632851  0.66995163    -0.19860
F2159       F  0.55877961  0.03677912  0.67181135    -0.20190
F2160       F  0.58286608  0.01733785  0.63102961    -0.22860
C2161       C  0.97204061  0.00155157  0.89280522    -0.05700
C2162       C  0.50010674  0.99788792  0.90759430     0.00230
C2163       C  0.52724551  0.49544578  0.89025199    -0.08340
C2164       C  0.52530316  0.49610577  0.85803852    -0.05720
C2165       C  0.49713157  0.99941634  0.84268873     0.00220
C2166       C  0.96983587  0.00244385  0.86053137    -0.08250
C2167       C  0.93846694  0.00692310  0.84621152     0.62130
H2168       H  0.95174501  0.00366113  0.90697858     0.12820
H2169       H  0.54605844  0.49392485  0.84462378     0.12830
C2170       C  0.55806564  0.49246737  0.90591840     0.62360
F2171       F  0.91588656  0.01111011  0.86818519    -0.22810
F2172       F  0.93064475  0.48142005  0.82928732    -0.20140
F2173       F  0.93869236  0.03255946  0.82746956    -0.19810
F2174       F  0.55859992  0.46605888  0.92345751    -0.19860
F2175       F  0.56290546  0.01737002  0.92476678    -0.20190
F2176       F  0.58189961  0.49113571  0.88494187    -0.22860
C2177       C  0.52639443  0.35755472  0.74802234    -0.05700
C2178       C  0.99801891  0.34249055  0.75027283     0.00230
C2179       C  0.97092101  0.36037269  0.75237611    -0.08340
C2180       C  0.97359474  0.39242019  0.75220312    -0.05720
C2181       C  0.00196689  0.40747853  0.74997422     0.00220
C2182       C  0.52906041  0.38960656  0.74779751    -0.08250
C2183       C  0.56081830  0.40369121  0.74503086     0.62130
H2184       H  0.54689667  0.34386193  0.74634674     0.12820
H2185       H  0.95309971  0.40612102  0.75390150     0.12830
C2186       C  0.93913887  0.34631495  0.75495491     0.62360
F2187       F  0.58345108  0.38178089  0.74200870    -0.22810
F2188       F  0.56729617  0.42042976  0.77110614    -0.20140
F2189       F  0.56228412  0.42238292  0.71932553    -0.19810
F2190       F  0.93745467  0.32777879  0.78075448    -0.19860
F2191       F  0.93287284  0.32943074  0.72892178    -0.20190
F2192       F  0.91648511  0.36824530  0.75765576    -0.22860
C2193       C  0.52636748  0.10750080  0.75138931    -0.05700
C2194       C  0.99795736  0.09246746  0.74970535     0.00230
C2195       C  0.97085245  0.11039696  0.74818987    -0.08340
C2196       C  0.97355260  0.14244483  0.74847834    -0.05720
C2197       C  0.00196142  0.15747810  0.75018691     0.00220
C2198       C  0.52906867  0.13954880  0.75166685    -0.08250
C2199       C  0.56090220  0.15355073  0.75357503     0.62130
H2200       H  0.54688483  0.09378468  0.75255161     0.12820
H2201       H  0.95303279  0.15615933  0.74734329     0.12830
C2202       C  0.93902430  0.09639661  0.74620656     0.62360
F2203       F  0.58361821  0.13156781  0.75507624    -0.22810
F2204       F  0.56319231  0.17125405  0.77972978    -0.20140
F2205       F  0.56655493  0.17126823  0.72774648    -0.19810
F2206       F  0.93322182  0.07887218  0.77212945    -0.19860
F2207       F  0.93686931  0.07850121  0.72017338    -0.20190
F2208       F  0.91632771  0.11837917  0.74441821    -0.22860
O2209       O  0.97378799  0.49839528  0.29249958    -0.71700
O2210       O  0.97672990  0.00012160  0.20533678    -0.71910
O2211       O  0.97647986  0.95594917  0.24829952    -0.71770
O2212       O  0.97408521  0.54260655  0.24955452    -0.71780
O2213       O  0.52345571  0.54395856  0.24965207    -0.71740
O2214       O  0.52575784  0.95730589  0.25132327    -0.71760
O2215       O  0.52611150  0.49999949  0.20688064    -0.71700
O2216       O  0.52308742  0.00121904  0.29406562    -0.71890
V2217       V  0.97620035  0.99929829  0.24895284     1.35240
V2218       V  0.52367563  0.00060512  0.25044274     1.35170
C2219       C  0.49786074  0.99978548  0.30834479     0.77380
C2220       C  0.50198008  0.00011396  0.19104620     0.77600
C2221       C  0.00157033  0.94164479  0.24980697     0.77470
C2222       C  0.99832812  0.55827739  0.24959272     0.77430
O2223       O  0.52314376  0.75018081  0.29482599    -0.71700
O2224       O  0.52621681  0.75109795  0.20765595    -0.71910
O2225       O  0.52351216  0.79399742  0.25145652    -0.71770
O2226       O  0.52582694  0.70732791  0.25099304    -0.71780
O2227       O  0.97647885  0.70599631  0.24977412    -0.71740
O2228       O  0.97418521  0.79265853  0.24941993    -0.71760
O2229       O  0.97688746  0.74940015  0.20602603    -0.71700
O2230       O  0.97379492  0.74922088  0.29320718    -0.71890
V2231       V  0.52374119  0.75063723  0.25120269     1.35240
V2232       V  0.97626928  0.74935207  0.24964809     1.35170
C2233       C  0.99788405  0.74953155  0.30909451     0.77540
C2234       C  0.00214713  0.75028489  0.19176619     0.77600
C2235       C  0.99840493  0.80831480  0.25044255     0.77470
C2236       C  0.00159209  0.69166777  0.25035021     0.77430
O2237       O  0.72437170  0.00092435  0.29277651    -0.71700
O2238       O  0.72618254  0.00099874  0.20535507    -0.71910
O2239       O  0.72328576  0.95765150  0.24897831    -0.71770
O2240       O  0.72729093  0.54433428  0.24921139    -0.71780
O2241       O  0.77667987  0.54244703  0.24978610    -0.71740
O2242       O  0.77264843  0.95564618  0.25045562    -0.71760
O2243       O  0.77563995  0.99863601  0.20639616    -0.71700
O2244       O  0.77386846  0.99943262  0.29376524    -0.71890
V2245       V  0.72623545  0.00097019  0.24910326     1.35240
V2246       V  0.77376575  0.99904384  0.25005030     1.35170
C2247       C  0.74876161  0.00030914  0.30824769     0.77540
C2248       C  0.75129219  0.99972181  0.19089128     0.77600
C2249       C  0.74728684  0.94167205  0.24956084     0.77470
C2250       C  0.75260906  0.55837931  0.24988938     0.77430
O2251       O  0.77435411  0.75104174  0.29368097    -0.71700
O2252       O  0.77353935  0.74889613  0.20640866    -0.71910
O2253       O  0.77440382  0.79309098  0.24883728    -0.71770
O2254       O  0.77347325  0.70649199  0.25145152    -0.71780
O2255       O  0.72403855  0.70691048  0.25081657    -0.71740
O2256       O  0.72500457  0.79376195  0.25039579    -0.71760
O2257       O  0.72400267  0.75060235  0.20706942    -0.71700
O2258       O  0.72465620  0.75033771  0.29422797    -0.71890
V2259       V  0.77299202  0.74984284  0.25008706     1.35240
V2260       V  0.72536697  0.75034641  0.25062723     1.35170
C2261       C  0.74959676  0.75112816  0.30870498     0.77540
C2262       C  0.74860238  0.75022554  0.19182505     0.77600
C2263       C  0.74997591  0.80839199  0.24917933     0.77470
C2264       C  0.74858863  0.69172155  0.25163191     0.77430
O2265       O  0.54332070  0.52232604  0.49902800    -0.71700
O2266       O  0.95638530  0.52220576  0.99998698    -0.71910
O2267       O  0.50026176  0.52277814  0.04304633    -0.71770
O2268       O  0.99948323  0.52248862  0.45596177    -0.71780
O2269       O  0.50085107  0.97280862  0.45622231    -0.71740
O2270       O  0.99888429  0.97309960  0.04356483    -0.71760
O2271       O  0.95664290  0.97281466  0.49913606    -0.71700
O2272       O  0.54308932  0.97294284  0.00068191    -0.71890
V2273       V  0.49985813  0.52152119  0.99951098     1.35240
V2274       V  0.99986805  0.97387858  0.99989159     1.35170
C2275       C  0.55819437  0.49748857  0.99990516     0.77540
C2276       C  0.94152139  0.49732485  0.99951986     0.77600
C2277       C  0.49943583  0.49805004  0.05806429     0.77470
C2278       C  0.50031504  0.49767290  0.44133540     0.77430
O2279       O  0.95666199  0.77221138  0.99985450    -0.71700
O2280       O  0.54366494  0.77220738  0.50046599    -0.71910
O2281       O  0.00059872  0.77230445  0.45662529    -0.71770
O2282       O  0.99972347  0.77291511  0.04367923    -0.71780
O2283       O  0.99996312  0.72321414  0.04439172    -0.71740
O2284       O  0.50018843  0.72260106  0.45704745    -0.71760
O2285       O  0.54328829  0.72279963  0.00063369    -0.71700
O2286       O  0.95690054  0.72281506  0.50074830    -0.71890
V2287       V  0.00015981  0.77148304  0.00016338     1.35240
V2288       V  0.00009198  0.72383127  0.50070353     1.35170
C2289       C  0.94179355  0.74731803  0.50022210     0.77540
C2290       C  0.55846010  0.74729997  0.00064189     0.77600
C2291       C  0.00050319  0.74742566  0.44209323     0.77470
C2292       C  0.99970709  0.74823381  0.05878114     0.77430
O2293       O  0.75083762  0.52851532  0.45680751    -0.71700
O2294       O  0.74928754  0.52457027  0.04412135    -0.71910
O2295       O  0.79315178  0.52647176  0.50106511    -0.71770
O2296       O  0.70670931  0.52679650  0.00000220    -0.71780
O2297       O  0.70627076  0.97743870  0.49823001    -0.71740
O2298       O  0.79319658  0.97712934  0.99902324    -0.71760
O2299       O  0.74892125  0.97497189  0.04214536    -0.71700
O2300       O  0.75018667  0.97890719  0.45512219    -0.71890
V2301       V  0.74996183  0.52562590  0.50046679     1.35240
V2302       V  0.74968963  0.97804531  0.99864765     1.35170
C2303       C  0.75081253  0.00426141  0.44114251     0.77540
C2304       C  0.74869939  0.99907659  0.05794124     0.77600
C2305       C  0.80816879  0.00192862  0.00014686     0.77470
C2306       C  0.69150190  0.00231808  0.99912291     0.77430
O2307       O  0.79365894  0.72649510  0.00054148    -0.71700
O2308       O  0.70664173  0.72636375  0.50106671    -0.71910
O2309       O  0.75006294  0.72554567  0.45745567    -0.71770
O2310       O  0.75047554  0.72646964  0.04428308    -0.71780
O2311       O  0.75043675  0.77607292  0.04382154    -0.71740
O2312       O  0.74974897  0.77492790  0.45618105    -0.71760
O2313       O  0.70693609  0.77575367  0.00048656    -0.71700
O2314       O  0.79330674  0.77587141  0.49954455    -0.71890
V2315       V  0.75017901  0.72716391  0.50083302     1.35240
V2316       V  0.75011257  0.77472225  0.50002713     1.35170
C2317       C  0.80847410  0.75140890  0.49996034     0.77540
C2318       C  0.69179788  0.75124929  0.50068104     0.77600
C2319       C  0.74969551  0.74980476  0.44175734     0.77470
C2320       C  0.75094664  0.75125681  0.05891469     0.77430
C2321       C  0.89282921  0.77575391  0.49959909    -0.05700
C2322       C  0.90761449  0.74723491  0.50007447     0.00230
C2323       C  0.88945698  0.72015211  0.00029837    -0.08340
C2324       C  0.85743671  0.72302435  0.00036106    -0.05720
C2325       C  0.84265194  0.75153377  0.49987739     0.00220
C2326       C  0.86080040  0.77861564  0.49935103    -0.08250
C2327       C  0.84707951  0.81061129  0.49846265     0.62130
H2328       H  0.90673588  0.79620330  0.49936409     0.12820
H2329       H  0.84352754  0.70257828  0.00071583     0.12830
C2330       C  0.90313190  0.68812344  0.00027144     0.62360
F2331       F  0.86925957  0.83321928  0.99779480    -0.22810
F2332       F  0.82933420  0.81533188  0.02439208    -0.20140
F2333       F  0.82949275  0.81411651  0.47231792    -0.19810
F2334       F  0.92064262  0.68375788  0.02631818    -0.19860
F2335       F  0.92093356  0.68416916  0.47424655    -0.20190
F2336       F  0.88092117  0.66554371  0.50017697    -0.22860
C2337       C  0.64271678  0.72311350  0.00429638    -0.05700
C2338       C  0.65761668  0.75136569  0.50053582     0.00230
C2339       C  0.63957781  0.77821755  0.49654982    -0.08340
C2340       C  0.60753178  0.77542664  0.49676707    -0.05720
C2341       C  0.59263582  0.74718231  0.00064075     0.00220
C2342       C  0.61067439  0.72031394  0.00440317    -0.08250
C2343       C  0.59679883  0.68862435  0.00871232     0.62130
H2344       H  0.65655060  0.70284274  0.00725092     0.12820
H2345       H  0.59369456  0.79568948  0.49376891     0.12830
C2346       C  0.65344677  0.80986575  0.49182372     0.62360
F2347       F  0.61884807  0.66631003  0.01290432    -0.22810
F2348       F  0.58016784  0.68076681  0.48294230    -0.20140
F2349       F  0.57808375  0.68826566  0.03441767    -0.19810
F2350       F  0.67223059  0.80987888  0.46616722    -0.19860
F2351       F  0.67000792  0.81811314  0.01751482    -0.20190
F2352       F  0.63139312  0.83210185  0.48723007    -0.22860
C2353       C  0.85705133  0.97336803  0.49818704    -0.05700
C2354       C  0.84236232  0.00186763  0.00016943     0.00230
C2355       C  0.86062401  0.52881153  0.00187682    -0.08340
C2356       C  0.89263973  0.52582296  0.00161910    -0.05720
C2357       C  0.90733067  0.99732812  0.99960611     0.00220
C2358       C  0.88907721  0.97039742  0.49777062    -0.08250
C2359       C  0.90268298  0.93846135  0.49518094     0.62130
H2360       H  0.84306799  0.95302511  0.49685175     0.12820
H2361       H  0.90661692  0.54616417  0.00302198     0.12830
C2362       C  0.84704721  0.56080461  0.00398028     0.62360
F2363       F  0.88042227  0.91604407  0.99309383    -0.22810
F2364       F  0.92001638  0.93196190  0.02091143    -0.20140
F2365       F  0.92065344  0.93659468  0.46902421    -0.19810
F2366       F  0.82920119  0.56314318  0.03018272    -0.19860
F2367       F  0.82960921  0.56685965  0.47820606    -0.20190
F2368       F  0.86932330  0.58325317  0.50556267    -0.22860
C2369       C  0.60706512  0.52619333  0.99955032    -0.05700
C2370       C  0.59237478  0.99758137  0.99992909     0.00230
C2371       C  0.61062519  0.97061127  0.50032637    -0.08340
C2372       C  0.64263220  0.97367169  0.49985547    -0.05720
C2373       C  0.65732209  0.00227627  0.99938112     0.00220
C2374       C  0.63908520  0.52924327  0.99946363    -0.08250
C2375       C  0.65271993  0.56130002  0.99953508     0.62130
H2376       H  0.59309446  0.54657227  0.99942406     0.12820
H2377       H  0.65660419  0.95329510  0.50003014     0.12830
C2378       C  0.59706248  0.93852234  0.50146583     0.62360
F2379       F  0.63047903  0.58381001  0.49949014    -0.22810
F2380       F  0.67057874  0.56563412  0.47356718    -0.20140
F2381       F  0.67017894  0.56533424  0.02565754    -0.19810
F2382       F  0.57924402  0.93354466  0.47578840    -0.19860
F2383       F  0.57959026  0.93499946  0.02781635    -0.20190
F2384       F  0.61935251  0.91606568  0.00195171    -0.22860
C2385       C  0.73031765  0.76968502  0.10829981    -0.05700
C2386       C  0.75139074  0.75109703  0.09287147     0.00230
C2387       C  0.77193846  0.73268655  0.10999269    -0.08340
C2388       C  0.77023007  0.73328067  0.14226195    -0.05720
C2389       C  0.74848577  0.75110859  0.15776720     0.00220
C2390       C  0.72820900  0.76987076  0.14058384    -0.08250
C2391       C  0.70482256  0.79046986  0.15600410     0.62130
H2392       H  0.71491505  0.78356569  0.09469744     0.12820
H2393       H  0.78562509  0.71928063  0.15574273     0.12830
C2394       C  0.79607695  0.71305609  0.09443286     0.62360
F2395       F  0.69029820  0.80939354  0.13506089    -0.22810
F2396       F  0.71906586  0.80883002  0.17744189    -0.20140
F2397       F  0.68266287  0.77287616  0.17036260    -0.19810
F2398       F  0.81297836  0.73067062  0.07405849    -0.19860
F2399       F  0.78225089  0.68940177  0.07875379    -0.20190
F2400       F  0.81611973  0.70031419  0.11544857    -0.22860
C2401       C  0.74438510  0.72379131  0.35776506    -0.05700
C2402       C  0.74973087  0.75138866  0.34244744     0.00230
C2403       C  0.75469549  0.77838581  0.35927939    -0.08340
C2404       C  0.75448417  0.77675724  0.39156631    -0.05720
C2405       C  0.74944475  0.74901102  0.40741740     0.00220
C2406       C  0.74420967  0.72183133  0.39004996    -0.08250
C2407       C  0.73826165  0.69075758  0.40482346     0.62130
H2408       H  0.74055865  0.70361052  0.34396442     0.12820
H2409       H  0.75839725  0.79735914  0.40464664     0.12830
C2410       C  0.75962669  0.80877719  0.34300746     0.62360
F2411       F  0.73221072  0.66841485  0.38322528    -0.22810
F2412       F  0.71315716  0.69241605  0.42417452    -0.20140
F2413       F  0.76371625  0.68149509  0.42116623    -0.19810
F2414       F  0.73457563  0.81536386  0.32484251    -0.19860
F2415       F  0.78545443  0.80725548  0.32466191    -0.20190
F2416       F  0.76345220  0.83253117  0.36355236    -0.22860
C2417       C  0.72797357  0.98366231  0.14159718    -0.05700
C2418       C  0.75183992  0.99903164  0.15668817     0.00230
C2419       C  0.77469571  0.51405351  0.13885335    -0.08340
C2420       C  0.77277838  0.51307652  0.10666109    -0.05720
C2421       C  0.74905309  0.99774602  0.09178826     0.00220
C2422       C  0.72616583  0.98270543  0.10928375    -0.08250
C2423       C  0.69942754  0.96678380  0.09391925     0.62130
H2424       H  0.71065302  0.97234240  0.15539554     0.12820
H2425       H  0.78987827  0.52447949  0.09262980     0.12830
C2426       C  0.79989306  0.53278015  0.15342484     0.62360
F2427       F  0.67850412  0.95569767  0.11518005    -0.22810
F2428       F  0.70985473  0.94237553  0.07677157    -0.20140
F2429       F  0.68439868  0.98714666  0.07482371    -0.19810
F2430       F  0.81928203  0.51403977  0.16999763    -0.19860
F2431       F  0.78680968  0.55422677  0.17253438    -0.20190
F2432       F  0.81738050  0.54822736  0.13176291    -0.22860
C2433       C  0.77179412  0.51760240  0.35721108    -0.05700
C2434       C  0.74827410  0.00142178  0.34241836     0.00230
C2435       C  0.72575386  0.98623380  0.36051880    -0.08340
C2436       C  0.72715846  0.98861223  0.39267022    -0.05720
C2437       C  0.75040150  0.00499072  0.40725903     0.00220
C2438       C  0.77341364  0.51945904  0.38948605    -0.08250
C2439       C  0.80014346  0.53561751  0.40457209     0.62130
H2440       H  0.78902693  0.52881648  0.34321460     0.12820
H2441       H  0.71018580  0.97727019  0.40690436     0.12830
C2442       C  0.70171183  0.96569260  0.34637752     0.62360
F2443       F  0.82139237  0.54576808  0.38317196    -0.22810
F2444       F  0.81479097  0.51574986  0.42448831    -0.20140
F2445       F  0.78974230  0.56065784  0.42077859    -0.19810
F2446       F  0.71610740  0.94410043  0.32836680    -0.19860
F2447       F  0.68167857  0.98270618  0.32875410    -0.20190
F2448       F  0.68466127  0.95031831  0.36844301    -0.22860
C2449       C  0.77431449  0.89241588  0.24327001    -0.05700
C2450       C  0.74645496  0.90750597  0.24881290     0.00230
C2451       C  0.71952255  0.88963603  0.25313891    -0.08340
C2452       C  0.72219765  0.85756732  0.25356664    -0.05720
C2453       C  0.75015838  0.84252998  0.24845612     0.00220
C2454       C  0.77671405  0.86038877  0.24230764    -0.08250
C2455       C  0.80750863  0.84632129  0.23409991     0.62130
H2456       H  0.79457418  0.90608134  0.23927929     0.12820
H2457       H  0.70201543  0.84382624  0.25768381     0.12830
C2458       C  0.68784521  0.90363435  0.25671496     0.62360
F2459       F  0.82907303  0.86823210  0.22625387    -0.22810
F2460       F  0.80429316  0.82717728  0.20908503    -0.20140
F2461       F  0.81878414  0.83007563  0.25893168    -0.19810
F2462       F  0.68048637  0.91994404  0.23047044    -0.19860
F2463       F  0.68701855  0.92275063  0.28181159    -0.20190
F2464       F  0.66539880  0.88167740  0.26110680    -0.22860
C2465       C  0.72527114  0.60735644  0.25740292    -0.05700
C2466       C  0.75320540  0.59256517  0.25127973     0.00230
C2467       C  0.77996476  0.61075307  0.24727035    -0.08340
C2468       C  0.77692504  0.64281045  0.24702129    -0.05720
C2469       C  0.74881900  0.65754316  0.25237227     0.00220
C2470       C  0.72261898  0.63935831  0.25891996    -0.08250
C2471       C  0.69204334  0.65308824  0.26834158     0.62130
H2472       H  0.70515289  0.59349305  0.26143984     0.12820
H2473       H  0.79692712  0.65678433  0.24279849     0.12830
C2474       C  0.81181787  0.59711794  0.24388441     0.62360
F2475       F  0.67114318  0.63092840  0.27726139    -0.22810
F2476       F  0.67952901  0.66903633  0.24393757    -0.20140
F2477       F  0.69610115  0.67245762  0.29305398    -0.19810
F2478       F  0.81327116  0.57880769  0.21823515    -0.19860
F2479       F  0.81884098  0.58005494  0.26973960    -0.20190
F2480       F  0.83415269  0.61937228  0.24062941    -0.22860
C2481       C  0.97458108  0.74905424  0.14200783    -0.05700
C2482       C  0.00291272  0.75017497  0.15739671     0.00230
C2483       C  0.53039547  0.75105304  0.13955118    -0.08340
C2484       C  0.52815876  0.75017677  0.10728517    -0.05720
C2485       C  0.99990655  0.74875490  0.09249859     0.00220
C2486       C  0.97263591  0.74852271  0.10980057    -0.08250
C2487       C  0.94170139  0.74788037  0.09408069     0.62130
H2488       H  0.95367573  0.74863886  0.15537087     0.12820
H2489       H  0.54856556  0.75062833  0.09310579     0.12830
C2490       C  0.56204131  0.75297968  0.15382849     0.62360
F2491       F  0.91779669  0.74765131  0.11502566    -0.22810
F2492       F  0.93940185  0.72194948  0.07621315    -0.20140
F2493       F  0.93858756  0.77344323  0.07552460    -0.19810
F2494       F  0.56727779  0.72747068  0.17196048    -0.19860
F2495       F  0.56433689  0.77918373  0.17135177    -0.20190
F2496       F  0.58496853  0.75416949  0.13181500    -0.22860
C2497       C  0.97196963  0.74750455  0.39359995    -0.05700
C2498       C  0.00026145  0.74752303  0.40837861     0.00230
C2499       C  0.52750845  0.74849682  0.39107039    -0.08340
C2500       C  0.52552295  0.74908917  0.35885499    -0.05720
C2501       C  0.99715564  0.74900366  0.34347131     0.00220
C2502       C  0.96967529  0.74835313  0.36133042    -0.08250
C2503       C  0.93796454  0.74868646  0.34706796     0.62130
H2504       H  0.95157404  0.74698087  0.40779348     0.12820
H2505       H  0.54641946  0.74968520  0.34548378     0.12830
C2506       C  0.55845146  0.74894200  0.40680501     0.62360
F2507       F  0.91502098  0.74839240  0.36908948    -0.22810
F2508       F  0.93406744  0.72311398  0.32891666    -0.20140
F2509       F  0.93427940  0.77490302  0.32957072    -0.19810
F2510       F  0.56170821  0.72297764  0.42475192    -0.19860
F2511       F  0.56064358  0.77447128  0.42530261    -0.20190
F2512       F  0.58233698  0.74979371  0.38585292    -0.22860
C2513       C  0.97474358  0.99471499  0.14142625    -0.05700
C2514       C  0.50266524  0.49988678  0.15670274     0.00230
C2515       C  0.52964825  0.50489048  0.13879403    -0.08340
C2516       C  0.52743432  0.50402497  0.10652550    -0.05720
C2517       C  0.49965373  0.49843821  0.09180662     0.00220
C2518       C  0.97277070  0.99408295  0.10921591    -0.08250
C2519       C  0.94212028  0.98941866  0.09362253     0.62130
H2520       H  0.95420530  0.99109273  0.15489976     0.12820
H2521       H  0.54752285  0.50756137  0.09230670     0.12830
C2522       C  0.56067558  0.51139716  0.15305210     0.62360
F2523       F  0.91849571  0.98631415  0.11467223    -0.22810
F2524       F  0.94303299  0.96330142  0.07589274    -0.20140
F2525       F  0.93574929  0.51428770  0.07496611    -0.19810
F2526       F  0.57022903  0.98632848  0.16995163    -0.19860
F2527       F  0.55877962  0.53677912  0.17181136    -0.20190
F2528       F  0.58286610  0.51733785  0.13102962    -0.22860
C2529       C  0.97204062  0.50155161  0.39280522    -0.05700
C2530       C  0.50010673  0.49788794  0.40759430     0.00230
C2531       C  0.52724553  0.99544577  0.39025199    -0.08340
C2532       C  0.52530317  0.99610577  0.35803852    -0.05720
C2533       C  0.49713156  0.49941636  0.34268873     0.00220
C2534       C  0.96983588  0.50244390  0.36053137    -0.08250
C2535       C  0.93846696  0.50692319  0.34621152     0.62130
H2536       H  0.95174502  0.50366119  0.40697858     0.12820
H2537       H  0.54605845  0.99392485  0.34462378     0.12830
C2538       C  0.55806566  0.99246737  0.40591840     0.62360
F2539       F  0.91588658  0.51111024  0.36818519    -0.22810
F2540       F  0.93064472  0.98142010  0.32928732    -0.20140
F2541       F  0.93869242  0.53255954  0.32746955    -0.19810
F2542       F  0.55859994  0.96605887  0.42345750    -0.19860
F2543       F  0.56290546  0.51736996  0.42476678    -0.20190
F2544       F  0.58189963  0.99113571  0.38494187    -0.22860
C2545       C  0.52639444  0.85755472  0.24802235    -0.05700
C2546       C  0.99801889  0.84249055  0.25027285     0.00230
C2547       C  0.97092099  0.86037269  0.25237614    -0.08340
C2548       C  0.97359472  0.89242019  0.25220315    -0.05720
C2549       C  0.00196687  0.90747853  0.24997423     0.00220
C2550       C  0.52906041  0.88960656  0.24779751    -0.08250
C2551       C  0.56081830  0.90369121  0.24503085     0.62130
H2552       H  0.54689667  0.84386193  0.24634673     0.12820
H2553       H  0.95309970  0.90612102  0.25390155     0.12830
C2554       C  0.93913885  0.84631495  0.25495497     0.62360
F2555       F  0.58345108  0.88178089  0.24200869    -0.22810
F2556       F  0.56729619  0.92042975  0.27110613    -0.20140
F2557       F  0.56228412  0.92238291  0.21932552    -0.19810
F2558       F  0.93745467  0.82777878  0.28075454    -0.19860
F2559       F  0.93287279  0.82943075  0.22892184    -0.20190
F2560       F  0.91648509  0.86824530  0.25765584    -0.22860
C2561       C  0.52636749  0.60750080  0.25138928    -0.05700
C2562       C  0.99795736  0.59246746  0.24970534     0.00230
C2563       C  0.97085245  0.61039695  0.24818986    -0.08340
C2564       C  0.97355259  0.64244482  0.24847833    -0.05720
C2565       C  0.00196141  0.65747810  0.25018689     0.00220
C2566       C  0.52906868  0.63954880  0.25166682    -0.08250
C2567       C  0.56090221  0.65355073  0.25357499     0.62130
H2568       H  0.54688483  0.59378468  0.25255158     0.12820
H2569       H  0.95303277  0.65615932  0.24734329     0.12830
C2570       C  0.93902430  0.59639660  0.24620655     0.62360
F2571       F  0.58361822  0.63156781  0.25507619    -0.22810
F2572       F  0.56319233  0.67125404  0.27972975    -0.20140
F2573       F  0.56655493  0.67126824  0.22774644    -0.19810
F2574       F  0.93322182  0.57887217  0.27212945    -0.19860
F2575       F  0.93686931  0.57850120  0.22017338    -0.20190
F2576       F  0.91632770  0.61837917  0.24441821    -0.22860
O2577       O  0.97378798  0.49839528  0.79249958    -0.71700
O2578       O  0.97672992  0.00012160  0.70533678    -0.71910
O2579       O  0.97647989  0.95594917  0.74829951    -0.71770
O2580       O  0.97408520  0.54260655  0.74955452    -0.71780
O2581       O  0.52345572  0.54395856  0.74965208    -0.71740
O2582       O  0.52575782  0.95730588  0.75132325    -0.71760
O2583       O  0.52611152  0.49999950  0.70688064    -0.71700
O2584       O  0.52308740  0.00121903  0.79406562    -0.71890
V2585       V  0.97620037  0.99929829  0.74895284     1.35240
V2586       V  0.52367561  0.00060512  0.75044273     1.35170
C2587       C  0.49786072  0.99978546  0.80834479     0.77380
C2588       C  0.50198006  0.00011397  0.69104620     0.77600
C2589       C  0.00157036  0.94164479  0.74980696     0.77470
C2590       C  0.99832810  0.55827739  0.74959273     0.77430
O2591       O  0.52314376  0.75018082  0.79482599    -0.71700
O2592       O  0.52621681  0.75109795  0.70765596    -0.71910
O2593       O  0.52351216  0.79399742  0.75145652    -0.71770
O2594       O  0.52582695  0.70732791  0.75099304    -0.71780
O2595       O  0.97647885  0.70599631  0.74977413    -0.71740
O2596       O  0.97418523  0.79265853  0.74941992    -0.71760
O2597       O  0.97688748  0.74940014  0.70602602    -0.71700
O2598       O  0.97379493  0.74922089  0.79320718    -0.71890
V2599       V  0.52374119  0.75063723  0.75120269     1.35240
V2600       V  0.97626929  0.74935207  0.74964809     1.35170
C2601       C  0.99788405  0.74953156  0.80909451     0.77540
C2602       C  0.00214715  0.75028489  0.69176619     0.77600
C2603       C  0.99840495  0.80831480  0.75044254     0.77470
C2604       C  0.00159209  0.69166777  0.75035022     0.77430
O2605       O  0.72437171  0.00092435  0.79277652    -0.71700
O2606       O  0.72618254  0.00099873  0.70535508    -0.71910
O2607       O  0.72328577  0.95765150  0.74897832    -0.71770
O2608       O  0.72729092  0.54433428  0.74921138    -0.71780
O2609       O  0.77667986  0.54244703  0.74978609    -0.71740
O2610       O  0.77264843  0.95564618  0.75045561    -0.71760
O2611       O  0.77563995  0.99863601  0.70639616    -0.71700
O2612       O  0.77386847  0.99943261  0.79376524    -0.71890
V2613       V  0.72623545  0.00097018  0.74910327     1.35240
V2614       V  0.77376575  0.99904383  0.75005030     1.35170
C2615       C  0.74876162  0.00030913  0.80824769     0.77540
C2616       C  0.75129219  0.99972181  0.69089129     0.77600
C2617       C  0.74728685  0.94167205  0.74956084     0.77470
C2618       C  0.75260905  0.55837931  0.74988938     0.77430
O2619       O  0.77435411  0.75104174  0.79368098    -0.71700
O2620       O  0.77353935  0.74889612  0.70640866    -0.71910
O2621       O  0.77440382  0.79309098  0.74883728    -0.71770
O2622       O  0.77347325  0.70649199  0.75145153    -0.71780
O2623       O  0.72403855  0.70691048  0.75081657    -0.71740
O2624       O  0.72500458  0.79376194  0.75039579    -0.71760
O2625       O  0.72400267  0.75060235  0.70706942    -0.71700
O2626       O  0.72465620  0.75033771  0.79422797    -0.71890
V2627       V  0.77299202  0.74984284  0.75008707     1.35240
V2628       V  0.72536697  0.75034641  0.75062723     1.35170
C2629       C  0.74959676  0.75112816  0.80870498     0.77540
C2630       C  0.74860239  0.75022553  0.69182505     0.77600
C2631       C  0.74997592  0.80839199  0.74917933     0.77470
C2632       C  0.74858863  0.69172155  0.75163192     0.77430
O2633       O  0.54332069  0.52232605  0.99902801    -0.71700
O2634       O  0.95638530  0.52220575  0.49998698    -0.71910
O2635       O  0.50026178  0.52277813  0.54304633    -0.71770
O2636       O  0.99948323  0.52248862  0.95596177    -0.71780
O2637       O  0.50085106  0.97280861  0.95622231    -0.71740
O2638       O  0.99888428  0.97309960  0.54356482    -0.71760
O2639       O  0.95664291  0.97281466  0.99913606    -0.71700
O2640       O  0.54308931  0.97294285  0.50068192    -0.71890
V2641       V  0.49985814  0.52152118  0.49951098     1.35240
V2642       V  0.99986804  0.97387858  0.49989159     1.35170
C2643       C  0.55819437  0.49748856  0.49990515     0.77540
C2644       C  0.94152139  0.49732485  0.49951986     0.77600
C2645       C  0.49943584  0.49805003  0.55806428     0.77470
C2646       C  0.50031504  0.49767291  0.94133540     0.77430
O2647       O  0.95666200  0.77221138  0.49985451    -0.71700
O2648       O  0.54366492  0.77220738  0.00046600    -0.71910
O2649       O  0.00059871  0.77230445  0.95662529    -0.71770
O2650       O  0.99972348  0.77291510  0.54367923    -0.71780
O2651       O  0.99996315  0.72321413  0.54439172    -0.71740
O2652       O  0.50018842  0.72260106  0.95704745    -0.71760
O2653       O  0.54328830  0.72279963  0.50063369    -0.71700
O2654       O  0.95690052  0.72281507  0.00074830    -0.71890
V2655       V  0.00015982  0.77148303  0.50016338     1.35240
V2656       V  0.00009197  0.72383127  0.00070353     1.35170
C2657       C  0.94179353  0.74731803  0.00022209     0.77540
C2658       C  0.55846012  0.74729997  0.50064188     0.77600
C2659       C  0.00050318  0.74742566  0.94209323     0.77470
C2660       C  0.99970711  0.74823380  0.55878114     0.77430
O2661       O  0.75083761  0.52851533  0.95680751    -0.71700
O2662       O  0.74928754  0.52457026  0.54412135    -0.71910
O2663       O  0.79315178  0.52647176  0.00106511    -0.71770
O2664       O  0.70670931  0.52679649  0.50000219    -0.71780
O2665       O  0.70627077  0.97743870  0.99823000    -0.71740
O2666       O  0.79319657  0.97712934  0.49902324    -0.71760
O2667       O  0.74892124  0.97497190  0.54214536    -0.71700
O2668       O  0.75018669  0.97890720  0.95512219    -0.71890
V2669       V  0.74996183  0.52562591  0.00046679     1.35240
V2670       V  0.74968962  0.97804531  0.49864765     1.35170
C2671       C  0.75081254  0.00426141  0.94114251     0.77540
C2672       C  0.74869939  0.99907660  0.55794124     0.77600
C2673       C  0.80816878  0.00192862  0.50014686     0.77470
C2674       C  0.69150189  0.00231808  0.49912291     0.77430
O2675       O  0.79365895  0.72649510  0.50054149    -0.71700
O2676       O  0.70664172  0.72636375  0.00106671    -0.71910
O2677       O  0.75006292  0.72554568  0.95745567    -0.71770
O2678       O  0.75047554  0.72646963  0.54428308    -0.71780
O2679       O  0.75043676  0.77607291  0.54382154    -0.71740
O2680       O  0.74974895  0.77492791  0.95618105    -0.71760
O2681       O  0.70693611  0.77575367  0.50048656    -0.71700
O2682       O  0.79330672  0.77587142  0.99954455    -0.71890
V2683       V  0.75017900  0.72716392  0.00083303     1.35240
V2684       V  0.75011256  0.77472226  0.00002713     1.35170
C2685       C  0.80847408  0.75140891  0.99996034     0.77540
C2686       C  0.69179787  0.75124929  0.00068105     0.77600
C2687       C  0.74969549  0.74980477  0.94175734     0.77470
C2688       C  0.75094665  0.75125680  0.55891469     0.77430
C2689       C  0.89282919  0.77575392  0.99959908    -0.05700
C2690       C  0.90761448  0.74723492  0.00007446     0.00230
C2691       C  0.88945699  0.72015210  0.50029839    -0.08340
C2692       C  0.85743672  0.72302434  0.50036108    -0.05720
C2693       C  0.84265192  0.75153378  0.99987737     0.00220
C2694       C  0.86080039  0.77861565  0.99935102    -0.08250
C2695       C  0.84707950  0.81061130  0.99846264     0.62130
H2696       H  0.90673586  0.79620330  0.99936409     0.12820
H2697       H  0.84352756  0.70257828  0.50071585     0.12830
C2698       C  0.90313192  0.68812343  0.50027147     0.62360
F2699       F  0.86925958  0.83321927  0.49779480    -0.22810
F2700       F  0.82933421  0.81533188  0.52439209    -0.20140
F2701       F  0.82949274  0.81411652  0.97231792    -0.19810
F2702       F  0.92064263  0.68375788  0.52631821    -0.19860
F2703       F  0.92093355  0.68416917  0.97424653    -0.20190
F2704       F  0.88092115  0.66554371  0.00017694    -0.22860
C2705       C  0.64271679  0.72311349  0.50429636    -0.05700
C2706       C  0.65761666  0.75136570  0.00053583     0.00230
C2707       C  0.63957780  0.77821755  0.99654983    -0.08340
C2708       C  0.60753177  0.77542664  0.99676708    -0.05720
C2709       C  0.59263584  0.74718231  0.50064074     0.00220
C2710       C  0.61067440  0.72031393  0.50440315    -0.08250
C2711       C  0.59679884  0.68862434  0.50871229     0.62130
H2712       H  0.65655061  0.70284273  0.50725090     0.12820
H2713       H  0.59369454  0.79568948  0.99376892     0.12830
C2714       C  0.65344676  0.80986576  0.99182374     0.62360
F2715       F  0.61884808  0.66631001  0.51290428    -0.22810
F2716       F  0.58016783  0.68076681  0.98294233    -0.20140
F2717       F  0.57808377  0.68826564  0.53441764    -0.19810
F2718       F  0.67223057  0.80987889  0.96616724    -0.19860
F2719       F  0.67000793  0.81811313  0.51751481    -0.20190
F2720       F  0.63139311  0.83210186  0.98723009    -0.22860
C2721       C  0.85705133  0.97336803  0.99818704    -0.05700
C2722       C  0.84236231  0.00186763  0.50016943     0.00230
C2723       C  0.86062401  0.52881153  0.50187684    -0.08340
C2724       C  0.89263973  0.52582295  0.50161911    -0.05720
C2725       C  0.90733066  0.99732811  0.49960612     0.00220
C2726       C  0.88907721  0.97039742  0.99777062    -0.08250
C2727       C  0.90268299  0.93846136  0.99518093     0.62130
H2728       H  0.84306800  0.95302512  0.99685175     0.12820
H2729       H  0.90661693  0.54616416  0.50302200     0.12830
C2730       C  0.84704721  0.56080460  0.50398031     0.62360
F2731       F  0.88042226  0.91604407  0.49309384    -0.22810
F2732       F  0.92001638  0.93196189  0.52091144    -0.20140
F2733       F  0.92065345  0.93659469  0.96902421    -0.19810
F2734       F  0.82920118  0.56314316  0.53018275    -0.19860
F2735       F  0.82960921  0.56685965  0.97820604    -0.20190
F2736       F  0.86932330  0.58325318  0.00556264    -0.22860
C2737       C  0.60706512  0.52619331  0.49955032    -0.05700
C2738       C  0.59237477  0.99758137  0.49992910     0.00230
C2739       C  0.61062520  0.97061127  0.00032637    -0.08340
C2740       C  0.64263221  0.97367169  0.99985546    -0.05720
C2741       C  0.65732208  0.00227627  0.49938112     0.00220
C2742       C  0.63908520  0.52924325  0.49946363    -0.08250
C2743       C  0.65271993  0.56130001  0.49953509     0.62130
H2744       H  0.59309446  0.54657226  0.49942406     0.12820
H2745       H  0.65660420  0.95329509  0.00003015     0.12830
C2746       C  0.59706249  0.93852234  0.00146584     0.62360
F2747       F  0.63047902  0.58381003  0.99949013    -0.22810
F2748       F  0.67057874  0.56563413  0.97356718    -0.20140
F2749       F  0.67017894  0.56533421  0.52565755    -0.19810
F2750       F  0.57924403  0.93354465  0.97578841    -0.19860
F2751       F  0.57959025  0.93499946  0.52781635    -0.20190
F2752       F  0.61935250  0.91606568  0.50195169    -0.22860
C2753       C  0.73031767  0.76968503  0.60829982    -0.05700
C2754       C  0.75139075  0.75109702  0.59287147     0.00230
C2755       C  0.77193845  0.73268653  0.60999269    -0.08340
C2756       C  0.77023006  0.73328064  0.64226195    -0.05720
C2757       C  0.74848577  0.75110858  0.65776720     0.00220
C2758       C  0.72820902  0.76987076  0.64058384    -0.08250
C2759       C  0.70482259  0.79046988  0.65600410     0.62130
H2760       H  0.71491508  0.78356570  0.59469744     0.12820
H2761       H  0.78562507  0.71928060  0.65574274     0.12830
C2762       C  0.79607694  0.71305605  0.59443286     0.62360
F2763       F  0.69029825  0.80939357  0.63506089    -0.22810
F2764       F  0.71906591  0.80883003  0.67744189    -0.20140
F2765       F  0.68266289  0.77287620  0.67036261    -0.19810
F2766       F  0.81297836  0.73067058  0.57405850    -0.19860
F2767       F  0.78225086  0.68940174  0.57875380    -0.20190
F2768       F  0.81611970  0.70031414  0.61544858    -0.22860
C2769       C  0.74438507  0.72379132  0.85776506    -0.05700
C2770       C  0.74973087  0.75138867  0.84244744     0.00230
C2771       C  0.75469551  0.77838581  0.85927939    -0.08340
C2772       C  0.75448418  0.77675724  0.89156631    -0.05720
C2773       C  0.74944474  0.74901103  0.90741740     0.00220
C2774       C  0.74420964  0.72183134  0.89004996    -0.08250
C2775       C  0.73826159  0.69075759  0.90482346     0.62130
H2776       H  0.74055860  0.70361053  0.84396442     0.12820
H2777       H  0.75839727  0.79735913  0.90464664     0.12830
C2778       C  0.75962673  0.80877719  0.84300746     0.62360
F2779       F  0.73221064  0.66841487  0.88322528    -0.22810
F2780       F  0.71315710  0.69241608  0.92417452    -0.20140
F2781       F  0.76371618  0.68149508  0.92116623    -0.19810
F2782       F  0.73457567  0.81536387  0.82484251    -0.19860
F2783       F  0.78545447  0.80725546  0.82466191    -0.20190
F2784       F  0.76345225  0.83253116  0.86355236    -0.22860
C2785       C  0.72797357  0.98366230  0.64159719    -0.05700
C2786       C  0.75183991  0.99903164  0.65668817     0.00230
C2787       C  0.77469570  0.51405352  0.63885335    -0.08340
C2788       C  0.77277837  0.51307653  0.60666109    -0.05720
C2789       C  0.74905308  0.99774602  0.59178826     0.00220
C2790       C  0.72616584  0.98270542  0.60928376    -0.08250
C2791       C  0.69942755  0.96678378  0.59391926     0.62130
H2792       H  0.71065304  0.97234238  0.65539555     0.12820
H2793       H  0.78987825  0.52447950  0.59262980     0.12830
C2794       C  0.79989302  0.53278018  0.65342484     0.62360
F2795       F  0.67850414  0.95569764  0.61518006    -0.22810
F2796       F  0.70985475  0.94237551  0.57677158    -0.20140
F2797       F  0.68439868  0.98714663  0.57482372    -0.19810
F2798       F  0.81928201  0.51403982  0.66999764    -0.19860
F2799       F  0.78680962  0.55422679  0.67253438    -0.20190
F2800       F  0.81738046  0.54822741  0.63176291    -0.22860
C2801       C  0.77179411  0.51760240  0.85721108    -0.05700
C2802       C  0.74827411  0.00142178  0.84241836     0.00230
C2803       C  0.72575387  0.98623380  0.86051880    -0.08340
C2804       C  0.72715847  0.98861223  0.89267022    -0.05720
C2805       C  0.75040151  0.00499073  0.90725903     0.00220
C2806       C  0.77341364  0.51945904  0.88948605    -0.08250
C2807       C  0.80014346  0.53561751  0.90457209     0.62130
H2808       H  0.78902694  0.52881647  0.84321460     0.12820
H2809       H  0.71018581  0.97727020  0.90690437     0.12830
C2810       C  0.70171183  0.96569261  0.84637752     0.62360
F2811       F  0.82139237  0.54576806  0.88317195    -0.22810
F2812       F  0.81479096  0.51574985  0.92448831    -0.20140
F2813       F  0.78974231  0.56065784  0.92077859    -0.19810
F2814       F  0.71610740  0.94410043  0.82836681    -0.19860
F2815       F  0.68167857  0.98270619  0.82875410    -0.20190
F2816       F  0.68466128  0.95031832  0.86844301    -0.22860
C2817       C  0.77431449  0.89241588  0.74327002    -0.05700
C2818       C  0.74645497  0.90750597  0.74881291     0.00230
C2819       C  0.71952255  0.88963603  0.75313891    -0.08340
C2820       C  0.72219765  0.85756731  0.75356663    -0.05720
C2821       C  0.75015839  0.84252997  0.74845612     0.00220
C2822       C  0.77671406  0.86038876  0.74230765    -0.08250
C2823       C  0.80750864  0.84632129  0.73409993     0.62130
H2824       H  0.79457419  0.90608133  0.73927930     0.12820
H2825       H  0.70201543  0.84382624  0.75768380     0.12830
C2826       C  0.68784522  0.90363435  0.75671496     0.62360
F2827       F  0.82907305  0.86823209  0.72625389    -0.22810
F2828       F  0.80429318  0.82717728  0.70908504    -0.20140
F2829       F  0.81878414  0.83007562  0.75893169    -0.19810
F2830       F  0.68048638  0.91994404  0.73047044    -0.19860
F2831       F  0.68701856  0.92275062  0.78181159    -0.20190
F2832       F  0.66539880  0.88167740  0.76110680    -0.22860
C2833       C  0.72527114  0.60735644  0.75740293    -0.05700
C2834       C  0.75320539  0.59256516  0.75127973     0.00230
C2835       C  0.77996476  0.61075307  0.74727035    -0.08340
C2836       C  0.77692503  0.64281045  0.74702129    -0.05720
C2837       C  0.74881899  0.65754315  0.75237227     0.00220
C2838       C  0.72261898  0.63935831  0.75891997    -0.08250
C2839       C  0.69204334  0.65308824  0.76834159     0.62130
H2840       H  0.70515288  0.59349305  0.76143985     0.12820
H2841       H  0.79692712  0.65678432  0.74279849     0.12830
C2842       C  0.81181786  0.59711794  0.74388440     0.62360
F2843       F  0.67114318  0.63092840  0.77726140    -0.22810
F2844       F  0.67952901  0.66903633  0.74393758    -0.20140
F2845       F  0.69610115  0.67245762  0.79305398    -0.19810
F2846       F  0.81327115  0.57880769  0.71823514    -0.19860
F2847       F  0.81884097  0.58005493  0.76973959    -0.20190
F2848       F  0.83415268  0.61937227  0.74062940    -0.22860
C2849       C  0.97458110  0.74905424  0.64200783    -0.05700
C2850       C  0.00291274  0.75017496  0.65739671     0.00230
C2851       C  0.53039548  0.75105303  0.63955118    -0.08340
C2852       C  0.52815878  0.75017676  0.60728517    -0.05720
C2853       C  0.99990657  0.74875490  0.59249859     0.00220
C2854       C  0.97263593  0.74852272  0.60980057    -0.08250
C2855       C  0.94170141  0.74788038  0.59408069     0.62130
H2856       H  0.95367575  0.74863887  0.65537087     0.12820
H2857       H  0.54856558  0.75062831  0.59310579     0.12830
C2858       C  0.56204132  0.75297966  0.65382850     0.62360
F2859       F  0.91779671  0.74765132  0.61502566    -0.22810
F2860       F  0.93940186  0.72194949  0.57621315    -0.20140
F2861       F  0.93858758  0.77344324  0.57552460    -0.19810
F2862       F  0.56727780  0.72747066  0.67196049    -0.19860
F2863       F  0.56433691  0.77918370  0.67135178    -0.20190
F2864       F  0.58496855  0.75416945  0.63181501    -0.22860
C2865       C  0.97196962  0.74750455  0.89359995    -0.05700
C2866       C  0.00026145  0.74752304  0.90837861     0.00230
C2867       C  0.52750844  0.74849684  0.89107039    -0.08340
C2868       C  0.52552295  0.74908919  0.85885500    -0.05720
C2869       C  0.99715564  0.74900366  0.84347131     0.00220
C2870       C  0.96967529  0.74835313  0.86133041    -0.08250
C2871       C  0.93796454  0.74868645  0.84706795     0.62130
H2872       H  0.95157403  0.74698087  0.90779347     0.12820
H2873       H  0.54641945  0.74968523  0.84548379     0.12830
C2874       C  0.55845146  0.74894203  0.90680501     0.62360
F2875       F  0.91502097  0.74839239  0.86908948    -0.22810
F2876       F  0.93406744  0.72311397  0.82891666    -0.20140
F2877       F  0.93427939  0.77490302  0.82957072    -0.19810
F2878       F  0.56170822  0.72297767  0.92475193    -0.19860
F2879       F  0.56064356  0.77447131  0.92530261    -0.20190
F2880       F  0.58233698  0.74979375  0.88585293    -0.22860
C2881       C  0.97474360  0.99471498  0.64142626    -0.05700
C2882       C  0.50266526  0.49988678  0.65670274     0.00230
C2883       C  0.52964826  0.50489048  0.63879403    -0.08340
C2884       C  0.52743433  0.50402496  0.60652550    -0.05720
C2885       C  0.49965374  0.49843821  0.59180662     0.00220
C2886       C  0.97277071  0.99408294  0.60921591    -0.08250
C2887       C  0.94212029  0.98941863  0.59362254     0.62130
H2888       H  0.95420532  0.99109271  0.65489976     0.12820
H2889       H  0.54752286  0.50756135  0.59230670     0.12830
C2890       C  0.56067559  0.51139715  0.65305209     0.62360
F2891       F  0.91849572  0.98631411  0.61467225    -0.22810
F2892       F  0.94303300  0.96330138  0.57589276    -0.20140
F2893       F  0.93574929  0.51428769  0.57496609    -0.19810
F2894       F  0.57022902  0.98632853  0.66995163    -0.19860
F2895       F  0.55877964  0.53677911  0.67181135    -0.20190
F2896       F  0.58286611  0.51733783  0.63102961    -0.22860
C2897       C  0.97204061  0.50155159  0.89280522    -0.05700
C2898       C  0.50010673  0.49788795  0.90759430     0.00230
C2899       C  0.52724552  0.99544577  0.89025198    -0.08340
C2900       C  0.52530316  0.99610577  0.85803852    -0.05720
C2901       C  0.49713157  0.49941635  0.84268873     0.00220
C2902       C  0.96983587  0.50244387  0.86053138    -0.08250
C2903       C  0.93846694  0.50692313  0.84621152     0.62130
H2904       H  0.95174501  0.50366115  0.90697858     0.12820
H2905       H  0.54605844  0.99392486  0.84462378     0.12830
C2906       C  0.55806565  0.99246737  0.90591839     0.62360
F2907       F  0.91588656  0.51111016  0.86818520    -0.22810
F2908       F  0.93064476  0.98142003  0.82928731    -0.20140
F2909       F  0.93869237  0.53255949  0.82746956    -0.19810
F2910       F  0.55859995  0.96605888  0.92345750    -0.19860
F2911       F  0.56290546  0.51737002  0.92476678    -0.20190
F2912       F  0.58189962  0.99113572  0.88494186    -0.22860
C2913       C  0.52639443  0.85755472  0.74802235    -0.05700
C2914       C  0.99801891  0.84249055  0.75027283     0.00230
C2915       C  0.97092101  0.86037269  0.75237611    -0.08340
C2916       C  0.97359474  0.89242019  0.75220312    -0.05720
C2917       C  0.00196690  0.90747852  0.74997421     0.00220
C2918       C  0.52906040  0.88960656  0.74779752    -0.08250
C2919       C  0.56081829  0.90369121  0.74503088     0.62130
H2920       H  0.54689666  0.84386194  0.74634675     0.12820
H2921       H  0.95309972  0.90612103  0.75390151     0.12830
C2922       C  0.93913887  0.84631495  0.75495493     0.62360
F2923       F  0.58345107  0.88178090  0.74200874    -0.22810
F2924       F  0.56729615  0.92042976  0.77110615    -0.20140
F2925       F  0.56228412  0.92238292  0.71932555    -0.19810
F2926       F  0.93745467  0.82777879  0.78075449    -0.19860
F2927       F  0.93287283  0.82943075  0.72892179    -0.20190
F2928       F  0.91648511  0.86824531  0.75765578    -0.22860
C2929       C  0.52636750  0.60750080  0.75138930    -0.05700
C2930       C  0.99795734  0.59246746  0.74970536     0.00230
C2931       C  0.97085244  0.61039696  0.74818987    -0.08340
C2932       C  0.97355259  0.64244483  0.74847834    -0.05720
C2933       C  0.00196141  0.65747810  0.75018691     0.00220
C2934       C  0.52906869  0.63954880  0.75166685    -0.08250
C2935       C  0.56090222  0.65355074  0.75357502     0.62130
H2936       H  0.54688484  0.59378468  0.75255160     0.12820
H2937       H  0.95303277  0.65615933  0.74734330     0.12830
C2938       C  0.93902428  0.59639661  0.74620656     0.62360
F2939       F  0.58361823  0.63156781  0.75507624    -0.22810
F2940       F  0.56319233  0.67125405  0.77972978    -0.20140
F2941       F  0.56655494  0.67126824  0.72774648    -0.19810
F2942       F  0.93322180  0.57887218  0.77212945    -0.19860
F2943       F  0.93686930  0.57850120  0.72017338    -0.20190
F2944       F  0.91632769  0.61837917  0.74441822    -0.22860
loop_ 
_geom_bond_atom_site_label_1 
_geom_bond_atom_site_label_2 
_geom_bond_distance 
_geom_bond_site_symmetry_2 
_ccdc_geom_bond_type 
O1          V745   1.897       .  S
O1         C2219   1.262       .  A
O2            V9   1.898       .  S
O2         C1484   1.266       .  A
O3            V9   1.897       .  S
O3           C13   1.266       .  A
O4          V745   1.897   1_545  S
O4           C14   1.262       .  A
O5          V746   1.897       .  S
O5         C1486   1.266   1_455  A
O6           V10   1.897       .  S
O6         C1485   1.262       .  A
O7          V746   1.898   1_565  S
O7          C748   1.263   1_565  A
O8           V10   1.898       .  S
O8           C11   1.266   1_455  A
V9          O737   1.897       .  S
V9          O740   1.897       .  S
V9         V1482   2.079       .  T
V10         O741   1.897       .  S
V10         O743   1.898       .  S
V10        V1481   2.079   1_455  T
C11        O2209   1.262       .  A
C11        C1061   1.495       .  S
C12        O1474   1.266   1_455  A
C12         O743   1.263       .  A
C12        C1042   1.495       .  S
C13        O1478   1.262       .  A
C13         C341   1.495       .  S
C14        O1477   1.266       .  A
C14         C354   1.496       .  S
O15          V23   1.898       .  S
O15        C1497   1.266   1_455  A
O16          V23   1.897       .  S
O16        C1498   1.262       .  A
O17          V23   1.897       .  S
O17        C1499   1.266   1_455  A
O18          V23   1.897       .  S
O18        C1500   1.262       .  A
O19          V24   1.897       .  S
O19          C28   1.266       .  A
O20          V24   1.897       .  S
O20          C27   1.262       .  A
O21          V24   1.898       .  S
O21          C26   1.266       .  A
O22          V24   1.898       .  S
O22          C25   1.263       .  A
V23        V1496   2.079   1_455  T
V24        V1495   2.079       .  T
C25        O1487   1.266       .  A
C25         C293   1.496       .  S
C26        O1488   1.262       .  A
C26         C274   1.496       .  S
C27        O1489   1.266       .  A
C27         C338   1.495       .  S
C28        O1490   1.262       .  A
C28         C357   1.496       .  S
O29          V37   1.902       .  S
O29          C39   1.264       .  A
O30          V37   1.903       .  S
O30          C40   1.265       .  A
O31          V37   1.899       .  S
O31          C41   1.262       .  A
O32         V773   1.898       .  S
O32          C42   1.267       .  A
O33         V774   1.903   1_545  S
O33          C42   1.263       .  A
O34          V38   1.899       .  S
O34          C41   1.267       .  A
O35          V38   1.901       .  S
O35          C40   1.264       .  A
O36          V38   1.902       .  S
O36          C39   1.265       .  A
V37         O768   1.898       .  S
V37          V38   2.082       .  T
V38         O769   1.903       .  S
C39         C226   1.488       .  S
C40         C210   1.489       .  S
C41         C242   1.496       .  S
C42         C258   1.497       .  S
O43          V51   1.899       .  S
O43          C53   1.263       .  A
O44          V51   1.901       .  S
O44          C54   1.265       .  A
O45          V51   1.894       .  S
O45          C55   1.262       .  A
O46          V51   1.897       .  S
O46          C56   1.265       .  A
O47          V52   1.901       .  S
O47          C56   1.264       .  A
O48          V52   1.899       .  S
O48          C55   1.266       .  A
O49          V52   1.896       .  S
O49          C54   1.262       .  A
O50          V52   1.897       .  S
O50          C53   1.262       .  A
V51          V52   2.084       .  T
C53         C194   1.468       .  S
C54         C181   1.482       .  S
C55         C245   1.494       .  S
C56         C261   1.496       .  S
O57         V433   1.902   1_455  S
O57         C435   1.268   1_545  A
O58        V1537   1.902       .  S
O58          C68   1.268   1_545  A
O59          V65   1.895   1_454  S
O59          C69   1.262   1_445  A
O60        V1905   1.895       .  S
O60        C1542   1.262   1_545  A
O61        V1906   1.901   1_455  S
O61         C806   1.264       .  A
O62          V66   1.901   1_554  S
O62        C2277   1.264       .  A
O63         V434   1.892       .  S
O63        C1172   1.261       .  A
O64        V1538   1.892   1_454  S
O64         C803   1.261   1_554  A
V65         O425   1.902   1_655  S
V65        O1530   1.902       .  S
V65        O1900   1.895       .  S
V65        V2274   2.084   1_545  T
V66        O1901   1.901       .  S
V66         O431   1.892       .  S
V66        O1536   1.892   1_556  S
V66        V2273   2.084       .  T
C67         O425   1.268   1_565  A
C67         O800   1.261   1_556  A
C67         C898   1.495       .  S
C68        O1167   1.261       .  A
C68         C885   1.496       .  S
C69        O2270   1.264       .  A
C69         C309   1.468       .  S
C70        O1532   1.262   1_465  A
C70         O797   1.264       .  A
C70         C322   1.468       .  S
O71          V79   1.903   1_556  S
O71         C449   1.268   1_556  A
O72        V1919   1.904       .  S
O72         C450   1.268       .  A
O73         V447   1.895       .  S
O73          C83   1.261       .  A
O74          V79   1.895       .  S
O74          C84   1.261       .  A
O75         V448   1.901       .  S
O75          C84   1.264       .  A
O76        V1552   1.900       .  S
O76        C1555   1.263       .  A
O77        V1920   1.890       .  S
O77          C82   1.260       .  A
O78          V80   1.890       .  S
O78          C81   1.260       .  A
V79        O1912   1.904       .  S
V79         O441   1.895   1_554  S
V79         V448   2.085       .  T
V80         O443   1.901       .  S
V80        O1548   1.900       .  S
V80        O1917   1.890       .  S
V80         V447   2.085       .  T
C81         O439   1.268       .  A
C81         C114   1.495       .  S
C82         O440   1.268       .  A
C82         C133   1.495       .  S
C83        O1548   1.263       .  A
C83         C290   1.467       .  S
C84         C277   1.467       .  S
O85          V93   1.903       .  S
O85         C831   1.264       .  A
O86         V461   1.900       .  S
O86         C832   1.265   1_545  A
O87          V93   1.890       .  S
O87        C1201   1.260       .  A
O88         V461   1.893       .  S
O88         C834   1.261   1_554  A
O89         V462   1.900       .  S
O89         C466   1.267       .  A
O90          V94   1.904       .  S
O90          C97   1.268   1_556  A
O91          V94   1.897   1_554  S
O91          C96   1.262       .  A
O92         V462   1.894       .  S
O92          C95   1.263       .  A
V93         O454   1.900       .  S
V93         O456   1.893       .  S
V93        V1198   2.084   1_545  T
V94         O457   1.900       .  S
V94         O460   1.894       .  S
V94        V1197   2.084   1_556  T
C95         O821   1.264       .  A
C95         C229   1.475       .  S
C96         O822   1.265       .  A
C96         C213   1.474       .  S
C97        O1191   1.260       .  A
C97         C146   1.496       .  S
C98         O824   1.261   1_556  A
C98         O457   1.267       .  A
C98         C165   1.495       .  S
O99         V475   1.902       .  S
O99         C477   1.268   1_554  A
O100        V107   1.905       .  S
O100        C110   1.268       .  A
O101        V107   1.889       .  S
O101        C111   1.259       .  A
O102        V475   1.891       .  S
O102        C112   1.260       .  A
O103        V476   1.907       .  S
O103        C112   1.266       .  A
O104        V108   1.908       .  S
O104        C111   1.268       .  A
O105        V476   1.889       .  S
O105        C478   1.260       .  A
O106        V108   1.890       .  S
O106        C109   1.260       .  A
V107        O467   1.902       .  S
V107        O470   1.891       .  S
V107        V108   2.081       .  T
V108        O471   1.907       .  S
V108        O473   1.889       .  S
C109        O467   1.268       .  A
C109        C117   1.495       .  S
C110        O473   1.260       .  A
C110        C130   1.495       .  S
C111        C197   1.495       .  S
C112        C178   1.478       .  S
C113        C114   1.406       .  A
C113        C118   1.407       .  A
C113        H120   1.081       .  S
C114        C483   1.426       .  A
C115        C116   1.406       .  A
C115        C482   1.426       .  A
C115        C122   1.524       .  S
C116        C485   1.406   1_554  A
C116        H121   1.081       .  S
C117        C118   1.426       .  A
C117        C484   1.406       .  A
C118        C119   1.524       .  S
C119        F125   1.384       .  S
C119        F491   1.385       .  S
C119        F492   1.384       .  S
C122        F126   1.383       .  S
C122        F495   1.384   1_554  S
C122        F496   1.385       .  S
F123        C487   1.385       .  S
F124        C487   1.384   1_554  S
F127        C490   1.384       .  S
F128        C490   1.385       .  S
C129        C134   1.407       .  A
C129        C498   1.405       .  A
C129        H136   1.082       .  S
C130        C131   1.426       .  A
C130        C497   1.405       .  A
C131        C132   1.407       .  A
C131        C138   1.524       .  S
C132        C501   1.406       .  A
C132        H137   1.082       .  S
C133        C134   1.426       .  A
C133        C500   1.406   1_554  A
C134        C135   1.523       .  S
C135        F139   1.385       .  S
C135        F141   1.384       .  S
C135        F508   1.384   1_554  S
C138        F142   1.384       .  S
C138        F144   1.385       .  S
C138        F511   1.384       .  S
F140        C503   1.384       .  S
F143        C506   1.384   1_554  S
C145        C150   1.407       .  A
C145        C514   1.406       .  A
C145        H152   1.081       .  S
C146        C513   1.406   1_554  A
C146        C883   1.426       .  A
C147        C148   1.407       .  A
C147        C882   1.426       .  A
C147        C154   1.524       .  S
C148        C885   1.406   1_544  A
C148        H153   1.081       .  S
C149        C804   1.496       .  S
C149        C884   1.406   1_556  A
C149        C518   1.425       .  A
C150        C517   1.425       .  A
C150        C151   1.524       .  S
C151        F157   1.384       .  S
C151        F523   1.385       .  S
C151        F524   1.383       .  S
C154        F158   1.384       .  S
C154        F527   1.383   1_554  S
C154        F528   1.385       .  S
F155        C519   1.385       .  S
F156        C519   1.383   1_554  S
F159        C522   1.383       .  S
F160        C522   1.385       .  S
C161        C166   1.407       .  A
C161        C898   1.407   1_545  A
C161        H168   1.081       .  S
C162        C803   1.495       .  S
C162        C897   1.407       .  A
C162        C531   1.425   1_556  A
C163        C164   1.407       .  A
C163        C530   1.425       .  A
C163        C170   1.524       .  S
C164        C533   1.406       .  A
C164        H169   1.081       .  S
C165        C532   1.406       .  A
C165        C902   1.425       .  A
C166        C901   1.425       .  A
C166        C167   1.524       .  S
C167        F173   1.384   1_556  S
C167        F539   1.385       .  S
C167        F540   1.383       .  S
C170        F174   1.383       .  S
C170        F543   1.383       .  S
C170        F544   1.385       .  S
F171        C535   1.385       .  S
F172        C535   1.383       .  S
F175        C538   1.383       .  S
F176        C538   1.385       .  S
C177        C178   1.401       .  A
C177        C182   1.407       .  A
C177        H184   1.083       .  S
C178        C179   1.419       .  A
C179        C180   1.406       .  A
C179        C186   1.521       .  S
C180        C181   1.404       .  A
C180        H185   1.083       .  S
C181        C182   1.421       .  A
C182        C183   1.520       .  S
C183        F187   1.385       .  S
C183        F188   1.384       .  S
C183        F189   1.383       .  S
C186        F190   1.383       .  S
C186        F191   1.382       .  S
C186        F192   1.385       .  S
C193        C194   1.395       .  A
C193        C198   1.407       .  A
C193        H200   1.083       .  S
C194        C195   1.410       .  A
C195        C196   1.406       .  A
C195        C202   1.518       .  S
C196        C197   1.410       .  A
C196        H201   1.082       .  S
C197        C198   1.431       .  A
C198        C199   1.523       .  S
C199        F203   1.385       .  S
C199        F204   1.383       .  S
C199        F205   1.383       .  S
C202        F206   1.383       .  S
C202        F207   1.383       .  S
C202        F208   1.385       .  S
C209        C210   1.408       .  A
C209        C214   1.409       .  A
C209        H216   1.083       .  S
C210        C947   1.422       .  A
C211        C212   1.404       .  A
C211        C946   1.422   1_545  A
C211        C218   1.516       .  S
C212        C949   1.398   1_545  A
C212        H217   1.084       .  S
C213        C214   1.415       .  A
C213        C948   1.398       .  A
C214        C215   1.520       .  S
C215        F219   1.385       .  S
C215        F220   1.382       .  S
C215        F221   1.384       .  S
C218        F222   1.383       .  S
C218        F223   1.380       .  S
C218        F224   1.385       .  S
C225        C230   1.409       .  A
C225        C962   1.408       .  A
C225        H232   1.083       .  S
C226        C227   1.421       .  A
C226        C961   1.408       .  A
C227        C228   1.405       .  A
C227        C234   1.517       .  S
C228        C229   1.399       .  A
C228        H233   1.084       .  S
C229        C966   1.414       .  A
C230        C965   1.414       .  A
C230        C231   1.519       .  S
C231        F235   1.385       .  S
C231        F236   1.384       .  S
C231        F237   1.382       .  S
C234        F238   1.381       .  S
C234        F239   1.382       .  S
C234        F240   1.385       .  S
C241        C242   1.407       .  A
C241        C246   1.406       .  A
C241        H248   1.082       .  S
C242        C243   1.425       .  A
C243        C244   1.408       .  A
C243        C250   1.523       .  S
C244        C245   1.407       .  A
C244        H249   1.082       .  S
C245        C246   1.423       .  A
C246        C247   1.524       .  S
C247        F251   1.385       .  S
C247        F252   1.384       .  S
C247        F253   1.383       .  S
C250        F254   1.383       .  S
C250        F255   1.379       .  S
C250        F256   1.385       .  S
C257        C258   1.408       .  A
C257        C262   1.407       .  A
C257        H264   1.082       .  S
C258        C259   1.425       .  A
C259        C260   1.409       .  A
C259        C266   1.523       .  S
C260        C261   1.408       .  A
C260        H265   1.082       .  S
C261        C262   1.422       .  A
C262        C263   1.522       .  S
C263        F267   1.385       .  S
C263        F268   1.383       .  S
C263        F269   1.384       .  S
C266        F270   1.378       .  S
C266        F271   1.383       .  S
C266        F272   1.385       .  S
C273        C274   1.412       .  A
C273        C278   1.405       .  A
C273        H280   1.082       .  S
C274       C1747   1.429       .  A
C275        C276   1.408       .  A
C275       C1746   1.429       .  A
C275        C282   1.522       .  S
C276       C1749   1.397   1_455  A
C276        H281   1.083       .  S
C277        C278   1.408       .  A
C277       C1748   1.397       .  A
C278        C279   1.519       .  S
C279        F283   1.385       .  S
C279        F284   1.382       .  S
C279        F285   1.383       .  S
C282        F286   1.383       .  S
C282        F287   1.384       .  S
C282        F288   1.385       .  S
C289        C290   1.397       .  A
C289        C294   1.408       .  A
C289        H296   1.083       .  S
C290       C1763   1.408       .  A
C291        C292   1.405       .  A
C291       C1762   1.408       .  A
C291        C298   1.519       .  S
C292       C1765   1.412   1_455  A
C292        H297   1.082       .  S
C293        C294   1.429       .  A
C293       C1764   1.412       .  A
C294        C295   1.522       .  S
C295        F299   1.385       .  S
C295        F300   1.383       .  S
C295        F301   1.383       .  S
C298        F302   1.383       .  S
C298        F303   1.383       .  S
C298        F304   1.384       .  S
C305        C310   1.405       .  A
C305       C2514   1.411       .  A
C305        H312   1.082       .  S
C306        C748   1.495   1_565  S
C306        C307   1.428   1_565  A
C306       C2513   1.411   1_455  A
C307        C308   1.408       .  A
C307        C314   1.522       .  S
C308        C309   1.398   1_445  A
C308        H313   1.083       .  S
C309       C2518   1.409       .  A
C310       C2517   1.409       .  A
C310        C311   1.519       .  S
C311        F315   1.384       .  S
C311        F316   1.382       .  S
C311       F1053   1.384       .  S
C314        F319   1.384       .  S
C314        F320   1.385       .  S
C314       F1054   1.383   1_545  S
F317       C1047   1.384   1_545  S
F318       C1050   1.383       .  S
C321        C326   1.408       .  A
C321       C1794   1.397   1_545  A
C321        H328   1.083       .  S
C322       C1793   1.397   1_465  A
C322       C1059   1.409       .  A
C323        C324   1.405       .  A
C323       C1058   1.409       .  A
C323        C330   1.518       .  S
C324       C1061   1.411   1_455  A
C324        H329   1.082       .  S
C325        C747   1.495       .  S
C325       C1060   1.411   1_655  A
C325       C1798   1.428   1_565  A
C326       C1797   1.428   1_545  A
C326        C327   1.522       .  S
C327        F331   1.385       .  S
C327        F333   1.384       .  S
C327       F1068   1.383   1_545  S
C330        F334   1.382       .  S
C330        F336   1.385       .  S
C330       F1071   1.383       .  S
F332       C1063   1.383       .  S
F335       C1066   1.383   1_545  S
C337        C342   1.407       .  A
C337       C1810   1.408   1_455  A
C337        H344   1.081       .  S
C338        C339   1.424       .  A
C338       C1809   1.408       .  A
C339        C340   1.407       .  A
C339        C346   1.523       .  S
C340        C341   1.407       .  A
C340        H345   1.081       .  S
C341       C1814   1.424       .  A
C342       C1813   1.424       .  A
C342        C343   1.523       .  S
C343        F347   1.385       .  S
C343        F348   1.383       .  S
C343        F349   1.384       .  S
C346        F350   1.383       .  S
C346        F351   1.383       .  S
C346        F352   1.385       .  S
C353        C358   1.407       .  A
C353       C1826   1.408   1_455  A
C353        H360   1.081       .  S
C354        C355   1.424       .  A
C354       C1825   1.408       .  A
C355        C356   1.407       .  A
C355        C362   1.524       .  S
C356        C357   1.408       .  A
C356        H361   1.081       .  S
C357       C1830   1.424       .  A
C358       C1829   1.424       .  A
C358        C359   1.524       .  S
C359        F363   1.385       .  S
C359        F364   1.384       .  S
C359        F365   1.383       .  S
C362        F366   1.383       .  S
C362        F367   1.384       .  S
C362        F368   1.385       .  S
O369       V1113   1.897       .  S
O369       C2587   1.262       .  A
O370        V377   1.898       .  S
O370       C1852   1.266       .  A
O371        V377   1.897       .  S
O371        C381   1.266       .  A
O372       V1113   1.897   1_545  S
O372        C382   1.262       .  A
O373       V1114   1.897       .  S
O373       C1854   1.266   1_455  A
O374        V378   1.897       .  S
O374       C1853   1.262       .  A
O375       V1114   1.898   1_565  S
O375       C1116   1.263   1_565  A
O376        V378   1.898       .  S
O376        C379   1.266   1_455  A
V377       O1105   1.897       .  S
V377       O1108   1.897       .  S
V377       V1850   2.079       .  T
V378       O1109   1.897       .  S
V378       O1111   1.898       .  S
V378       V1849   2.079   1_455  T
C379       O2577   1.262       .  A
C379       C1429   1.495       .  S
C380       O1842   1.266   1_455  A
C380       O1111   1.263       .  A
C380       C1410   1.495       .  S
C381       O1846   1.262       .  A
C381        C709   1.495       .  S
C382       O1845   1.266       .  A
C382        C722   1.496       .  S
O383        V391   1.898       .  S
O383       C1865   1.266   1_455  A
O384        V391   1.897       .  S
O384       C1866   1.262       .  A
O385        V391   1.897       .  S
O385       C1867   1.266   1_455  A
O386        V391   1.897       .  S
O386       C1868   1.262       .  A
O387        V392   1.897       .  S
O387        C396   1.266       .  A
O388        V392   1.897       .  S
O388        C395   1.262       .  A
O389        V392   1.898       .  S
O389        C394   1.266       .  A
O390        V392   1.898       .  S
O390        C393   1.263       .  A
V391       V1864   2.079   1_455  T
V392       V1863   2.079       .  T
C393       O1855   1.266       .  A
C393        C661   1.496       .  S
C394       O1856   1.262       .  A
C394        C642   1.496       .  S
C395       O1857   1.266       .  A
C395        C706   1.495       .  S
C396       O1858   1.262       .  A
C396        C725   1.496       .  S
O397        V405   1.902       .  S
O397        C407   1.264       .  A
O398        V405   1.903       .  S
O398        C408   1.265       .  A
O399        V405   1.899       .  S
O399        C409   1.262       .  A
O400       V1141   1.898       .  S
O400        C410   1.267       .  A
O401       V1142   1.903   1_545  S
O401        C410   1.263       .  A
O402        V406   1.899       .  S
O402        C409   1.267       .  A
O403        V406   1.901       .  S
O403        C408   1.264       .  A
O404        V406   1.902       .  S
O404        C407   1.265       .  A
V405       O1136   1.898       .  S
V405        V406   2.082       .  T
V406       O1137   1.903       .  S
C407        C594   1.488       .  S
C408        C578   1.489       .  S
C409        C610   1.496       .  S
C410        C626   1.497       .  S
O411        V419   1.899       .  S
O411        C421   1.263       .  A
O412        V419   1.901       .  S
O412        C422   1.265       .  A
O413        V419   1.894       .  S
O413        C423   1.262       .  A
O414        V419   1.897       .  S
O414        C424   1.265       .  A
O415        V420   1.901       .  S
O415        C424   1.264       .  A
O416        V420   1.899       .  S
O416        C423   1.266       .  A
O417        V420   1.896       .  S
O417        C422   1.262       .  A
O418        V420   1.897       .  S
O418        C421   1.262       .  A
V419        V420   2.084       .  T
C421        C562   1.468       .  S
C422        C549   1.482       .  S
C423        C613   1.494       .  S
C424        C629   1.496       .  S
O426       V1905   1.902       .  S
O426        C436   1.268   1_545  A
O427        V433   1.895   1_455  S
O427        C437   1.262   1_445  A
O428       V1537   1.895       .  S
O428       C1910   1.262   1_545  A
O429       V1538   1.901   1_455  S
O429       C1174   1.264       .  A
O430        V434   1.901       .  S
O430       C2645   1.264       .  A
O431        C804   1.261       .  A
O432       V1906   1.892   1_455  S
O432       C1171   1.261       .  A
V433       O1898   1.902       .  S
V433       O1532   1.895       .  S
V433       V2642   2.084   1_545  T
V434       O1533   1.901       .  S
V434       O1904   1.892       .  S
V434       V2641   2.084       .  T
C435       O1168   1.261       .  A
C435       C1266   1.495       .  S
C436        O799   1.261       .  A
C436       C1253   1.496       .  S
C437       O2638   1.264       .  A
C437        C677   1.468       .  S
C438       O1900   1.262   1_465  A
C438       O1165   1.264       .  A
C438        C690   1.468       .  S
O439        V447   1.903       .  S
O440       V1551   1.904       .  S
O441        C451   1.261       .  A
O442        V447   1.895       .  S
O442        C452   1.261       .  A
O443        C452   1.264       .  A
O444       V1920   1.900   1_556  S
O444       C1923   1.263       .  A
O445       V1552   1.890       .  S
O445        C450   1.260       .  A
O446        V448   1.890       .  S
O446        C449   1.260       .  A
V447       O1544   1.904       .  S
V448       O1916   1.900   1_554  S
V448       O1549   1.890       .  S
C449        C482   1.495       .  S
C450        C501   1.495       .  S
C451       O1916   1.263       .  A
C451        C658   1.467       .  S
C452        C645   1.467       .  S
O453        V461   1.903   1_556  S
O453       C1199   1.264       .  A
O454       C1200   1.265   1_545  A
O455        V461   1.890       .  S
O455        C833   1.260       .  A
O456       C1202   1.261       .  A
O458        V462   1.904       .  S
O458        C465   1.268       .  A
O459        V462   1.897       .  S
O459        C464   1.262       .  A
O460        C463   1.263       .  A
V461        V830   2.084   1_544  T
V462        V829   2.084       .  T
C463       O1189   1.264       .  A
C463        C597   1.475       .  S
C464       O1190   1.265       .  A
C464        C581   1.474       .  S
C465        O823   1.260       .  A
C465        C514   1.496       .  S
C466       O1192   1.261       .  A
C466        C533   1.495       .  S
O468        V475   1.905       .  S
O468        C478   1.268       .  A
O469        V475   1.889   1_556  S
O469        C479   1.259       .  A
O470        C480   1.260       .  A
O471        C480   1.266       .  A
O472        V476   1.908   1_556  S
O472        C479   1.268       .  A
O474        V476   1.890   1_556  S
O474        C477   1.260       .  A
V475        V476   2.081       .  T
C477        C485   1.495       .  S
C478        C498   1.495       .  S
C479        C565   1.495       .  S
C480        C546   1.478       .  S
C481        C482   1.406   1_556  A
C481        C486   1.407       .  A
C481        H488   1.081       .  S
C483        C484   1.406       .  A
C483        C490   1.524       .  S
C484        H489   1.081       .  S
C485        C486   1.426       .  A
C486        C487   1.524       .  S
C487        F493   1.384       .  S
C490        F494   1.383       .  S
C497        C502   1.407       .  A
C497        H504   1.082       .  S
C498        C499   1.426   1_554  A
C499        C500   1.407       .  A
C499        C506   1.524       .  S
C500        H505   1.082       .  S
C501        C502   1.426       .  A
C502        C503   1.523       .  S
C503        F507   1.385       .  S
C503        F509   1.384       .  S
C506        F510   1.384       .  S
C506        F512   1.385       .  S
C513        C518   1.407       .  A
C513        H520   1.081       .  S
C514       C1251   1.426       .  A
C515       C1250   1.426       .  A
C515        C516   1.407       .  A
C515        C522   1.524       .  S
C516       C1253   1.406   1_545  A
C516        H521   1.081       .  S
C517       C1172   1.496       .  S
C517       C1252   1.406       .  A
C518        C519   1.524       .  S
C519        F525   1.384       .  S
C522        F526   1.384       .  S
C529       C1266   1.407   1_545  A
C529        C534   1.407       .  A
C529        H536   1.081       .  S
C530       C1171   1.495       .  S
C530       C1265   1.407       .  A
C531        C532   1.407   1_554  A
C531        C538   1.524       .  S
C532        H537   1.081   1_556  S
C533       C1270   1.425       .  A
C534       C1269   1.425       .  A
C534        C535   1.524       .  S
C535        F541   1.384       .  S
C538        F542   1.383   1_554  S
C545        C546   1.401       .  A
C545        C550   1.407       .  A
C545        H552   1.083       .  S
C546        C547   1.419       .  A
C547        C548   1.406       .  A
C547        C554   1.521       .  S
C548        C549   1.404       .  A
C548        H553   1.083       .  S
C549        C550   1.421       .  A
C550        C551   1.520       .  S
C551        F555   1.385       .  S
C551        F556   1.384       .  S
C551        F557   1.383       .  S
C554        F558   1.383       .  S
C554        F559   1.382       .  S
C554        F560   1.385       .  S
C561        C562   1.395       .  A
C561        C566   1.407       .  A
C561        H568   1.083       .  S
C562        C563   1.410       .  A
C563        C564   1.406       .  A
C563        C570   1.518       .  S
C564        C565   1.410       .  A
C564        H569   1.082       .  S
C565        C566   1.431       .  A
C566        C567   1.523       .  S
C567        F571   1.385       .  S
C567        F572   1.383       .  S
C567        F573   1.383       .  S
C570        F574   1.383       .  S
C570        F575   1.383       .  S
C570        F576   1.385       .  S
C577        C578   1.408       .  A
C577        C582   1.409       .  A
C577        H584   1.083       .  S
C578       C1315   1.422       .  A
C579       C1314   1.422   1_545  A
C579        C580   1.404       .  A
C579        C586   1.516       .  S
C580       C1317   1.398   1_545  A
C580        H585   1.084       .  S
C581       C1316   1.398       .  A
C581        C582   1.415       .  A
C582        C583   1.520       .  S
C583        F587   1.385       .  S
C583        F588   1.382       .  S
C583        F589   1.384       .  S
C586        F590   1.383       .  S
C586        F591   1.380       .  S
C586        F592   1.385       .  S
C593       C1330   1.408       .  A
C593        C598   1.409       .  A
C593        H600   1.083       .  S
C594       C1329   1.408       .  A
C594        C595   1.421       .  A
C595        C596   1.405       .  A
C595        C602   1.517       .  S
C596        C597   1.399       .  A
C596        H601   1.084       .  S
C597       C1334   1.414       .  A
C598       C1333   1.414       .  A
C598        C599   1.519       .  S
C599        F603   1.385       .  S
C599        F604   1.384       .  S
C599        F605   1.382       .  S
C602        F606   1.381       .  S
C602        F607   1.382       .  S
C602        F608   1.385       .  S
C609        C610   1.407       .  A
C609        C614   1.406       .  A
C609        H616   1.082       .  S
C610        C611   1.425       .  A
C611        C612   1.408       .  A
C611        C618   1.523       .  S
C612        C613   1.407       .  A
C612        H617   1.082       .  S
C613        C614   1.423       .  A
C614        C615   1.524       .  S
C615        F619   1.385       .  S
C615        F620   1.384       .  S
C615        F621   1.383       .  S
C618        F622   1.383       .  S
C618        F623   1.379       .  S
C618        F624   1.385       .  S
C625        C626   1.408       .  A
C625        C630   1.407       .  A
C625        H632   1.082       .  S
C626        C627   1.425       .  A
C627        C628   1.409       .  A
C627        C634   1.523       .  S
C628        C629   1.408       .  A
C628        H633   1.082       .  S
C629        C630   1.422       .  A
C630        C631   1.522       .  S
C631        F635   1.385       .  S
C631        F636   1.383       .  S
C631        F637   1.384       .  S
C634        F638   1.378       .  S
C634        F639   1.383       .  S
C634        F640   1.385       .  S
C641        C642   1.412       .  A
C641        C646   1.405       .  A
C641        H648   1.082       .  S
C642       C2115   1.429       .  A
C643       C2114   1.429       .  A
C643        C644   1.408       .  A
C643        C650   1.522       .  S
C644       C2117   1.397   1_455  A
C644        H649   1.083       .  S
C645       C2116   1.397       .  A
C645        C646   1.408       .  A
C646        C647   1.519       .  S
C647        F651   1.385       .  S
C647        F652   1.382       .  S
C647        F653   1.383       .  S
C650        F654   1.383       .  S
C650        F655   1.384       .  S
C650        F656   1.385       .  S
C657        C658   1.397       .  A
C657        C662   1.408       .  A
C657        H664   1.083       .  S
C658       C2131   1.408       .  A
C659       C2130   1.408       .  A
C659        C660   1.405       .  A
C659        C666   1.519       .  S
C660       C2133   1.412   1_455  A
C660        H665   1.082       .  S
C661       C2132   1.412       .  A
C661        C662   1.429       .  A
C662        C663   1.522       .  S
C663        F667   1.385       .  S
C663        F668   1.383       .  S
C663        F669   1.383       .  S
C666        F670   1.383       .  S
C666        F671   1.383       .  S
C666        F672   1.384       .  S
C673       C2882   1.411       .  A
C673        C678   1.405       .  A
C673        H680   1.082       .  S
C674       C1116   1.495   1_565  S
C674       C2881   1.411   1_455  A
C674        C675   1.428   1_565  A
C675        C676   1.408       .  A
C675        C682   1.522       .  S
C676        C677   1.398   1_445  A
C676        H681   1.083       .  S
C677       C2886   1.409       .  A
C678       C2885   1.409       .  A
C678        C679   1.519       .  S
C679        F683   1.384       .  S
C679        F684   1.382       .  S
C679       F1421   1.384       .  S
C682       F1422   1.383   1_545  S
C682        F687   1.384       .  S
C682        F688   1.385       .  S
F685       C1415   1.384   1_545  S
F686       C1418   1.383       .  S
C689       C2162   1.397   1_545  A
C689        C694   1.408       .  A
C689        H696   1.083       .  S
C690       C2161   1.397   1_465  A
C690       C1427   1.409       .  A
C691       C1426   1.409       .  A
C691        C692   1.405       .  A
C691        C698   1.518       .  S
C692       C1429   1.411   1_455  A
C692        H697   1.082       .  S
C693       C1115   1.495       .  S
C693       C1428   1.411   1_655  A
C693       C2166   1.428   1_565  A
C694       C2165   1.428   1_545  A
C694        C695   1.522       .  S
C695        F699   1.385       .  S
C695       F1436   1.383   1_545  S
C695        F701   1.384       .  S
C698        F702   1.382       .  S
C698       F1439   1.383       .  S
C698        F704   1.385       .  S
F700       C1431   1.383       .  S
F703       C1434   1.383   1_545  S
C705       C2178   1.408   1_455  A
C705        C710   1.407       .  A
C705        H712   1.081       .  S
C706       C2177   1.408       .  A
C706        C707   1.424       .  A
C707        C708   1.407       .  A
C707        C714   1.523       .  S
C708        C709   1.407       .  A
C708        H713   1.081       .  S
C709       C2182   1.424       .  A
C710       C2181   1.424       .  A
C710        C711   1.523       .  S
C711        F715   1.385       .  S
C711        F716   1.383       .  S
C711        F717   1.384       .  S
C714        F718   1.383       .  S
C714        F719   1.383       .  S
C714        F720   1.385       .  S
C721       C2194   1.408   1_455  A
C721        C726   1.407       .  A
C721        H728   1.081       .  S
C722       C2193   1.408       .  A
C722        C723   1.424       .  A
C723        C724   1.407       .  A
C723        C730   1.524       .  S
C724        C725   1.408       .  A
C724        H729   1.081       .  S
C725       C2198   1.424       .  A
C726       C2197   1.424       .  A
C726        C727   1.524       .  S
C727        F731   1.385       .  S
C727        F732   1.384       .  S
C727        F733   1.383       .  S
C730        F734   1.383       .  S
C730        F735   1.384       .  S
C730        F736   1.385       .  S
O737       C1483   1.262       .  A
O738        V745   1.898   1_545  S
O738       C2220   1.266       .  A
O739        V745   1.897       .  S
O739        C749   1.266       .  A
O740        C750   1.262       .  A
O741       C2222   1.266   1_455  A
O742        V746   1.897   1_565  S
O742       C2221   1.262       .  A
O744        V746   1.898       .  S
O744        C747   1.266   1_445  A
V745       V2218   2.079   1_565  T
V746       V2217   2.079   1_445  T
C747       O1473   1.262       .  A
C748       O2210   1.266   1_455  A
C749       O2214   1.262       .  A
C749       C1077   1.495       .  S
C750       O2213   1.266       .  A
C750       C1090   1.496       .  S
O751        V759   1.898       .  S
O751       C2233   1.266   1_455  A
O752        V759   1.897       .  S
O752       C2234   1.262       .  A
O753        V759   1.897       .  S
O753       C2235   1.266   1_455  A
O754        V759   1.897       .  S
O754       C2236   1.262       .  A
O755        V760   1.897       .  S
O755        C764   1.266       .  A
O756        V760   1.897       .  S
O756        C763   1.262       .  A
O757        V760   1.898       .  S
O757        C762   1.266       .  A
O758        V760   1.898       .  S
O758        C761   1.263       .  A
V759       V2232   2.079   1_455  T
V760       V2231   2.079       .  T
C761       O2223   1.266       .  A
C761       C1029   1.496       .  S
C762       O2224   1.262       .  A
C762       C1010   1.496       .  S
C763       O2225   1.266       .  A
C763       C1074   1.495       .  S
C764       O2226   1.262       .  A
C764       C1093   1.496       .  S
O765        V773   1.902       .  S
O765        C775   1.264       .  A
O766        V773   1.903       .  S
O766        C776   1.265   1_545  A
O767        V773   1.899   1_565  S
O767        C777   1.262       .  A
O768        C778   1.267       .  A
O769        C778   1.263       .  A
O770        V774   1.899       .  S
O770        C777   1.267       .  A
O771        V774   1.901       .  S
O771        C776   1.264       .  A
O772        V774   1.902       .  S
O772        C775   1.265   1_565  A
V773        V774   2.082   1_545  T
C775        C962   1.488       .  S
C776        C946   1.489       .  S
C777        C978   1.496       .  S
C778        C994   1.497       .  S
O779        V787   1.899       .  S
O779        C789   1.263       .  A
O780        V787   1.901       .  S
O780        C790   1.265       .  A
O781        V787   1.894       .  S
O781        C791   1.262       .  A
O782        V787   1.897       .  S
O782        C792   1.265       .  A
O783        V788   1.901       .  S
O783        C792   1.264       .  A
O784        V788   1.899       .  S
O784        C791   1.266       .  A
O785        V788   1.896       .  S
O785        C790   1.262       .  A
O786        V788   1.897       .  S
O786        C789   1.262       .  A
V787        V788   2.084       .  T
C789        C930   1.468       .  S
C790        C917   1.482       .  S
C791        C981   1.494       .  S
C792        C997   1.496       .  S
O793       V1169   1.902   1_455  S
O793       C1171   1.268       .  A
O794       V2273   1.902       .  S
O794        C804   1.268       .  A
O795        V801   1.895   1_454  S
O795        C805   1.262   1_455  A
O796       V2641   1.895       .  S
O796       C2278   1.262       .  A
O797       V2642   1.901   1_455  S
O798        V802   1.901   1_554  S
O798       C1541   1.264       .  A
O799       V1170   1.892       .  S
O800       V2274   1.892   1_454  S
V801       O1161   1.902   1_655  S
V801       O2266   1.902       .  S
V801       O2636   1.895       .  S
V801       V1538   2.084       .  T
V802       O2637   1.901       .  S
V802       O1167   1.892       .  S
V802       O2272   1.892   1_556  S
V802       V1537   2.084   1_565  T
C803       O1161   1.268       .  A
C805       O1534   1.264       .  A
C805       C1045   1.468       .  S
C806       O2268   1.262   1_455  A
C806       C1058   1.468       .  S
O807        V815   1.903   1_556  S
O807       C1185   1.268   1_556  A
O808       V2655   1.904       .  S
O808       C1186   1.268       .  A
O809       V1183   1.895       .  S
O809        C819   1.261       .  A
O810        V815   1.895       .  S
O810        C820   1.261       .  A
O811       V1184   1.901       .  S
O811        C820   1.264       .  A
O812       V2288   1.900       .  S
O812       C2291   1.263       .  A
O813       V2656   1.890       .  S
O813        C818   1.260       .  A
O814        V816   1.890       .  S
O814        C817   1.260       .  A
V815       O2648   1.904       .  S
V815       O1177   1.895   1_554  S
V815       V1184   2.085       .  T
V816       O1179   1.901       .  S
V816       O2284   1.900       .  S
V816       O2653   1.890       .  S
V816       V1183   2.085       .  T
C817       O1175   1.268       .  A
C817        C850   1.495       .  S
C818       O1176   1.268       .  A
C818        C869   1.495       .  S
C819       O2284   1.263       .  A
C819       C1026   1.467       .  S
C820       C1013   1.467       .  S
O821        V829   1.903       .  S
O822       V1197   1.900       .  S
O823        V829   1.890       .  S
O824       V1197   1.893       .  S
O825       V1198   1.900       .  S
O825       C1202   1.267   1_565  A
O826        V830   1.904       .  S
O826        C833   1.268   1_566  A
O827        V830   1.897   1_554  S
O827        C832   1.262       .  A
O828       V1198   1.894       .  S
O828        C831   1.263   1_565  A
V829       O1190   1.900       .  S
V829       O1192   1.893       .  S
V830       O1193   1.900       .  S
V830       O1196   1.894       .  S
C831        C965   1.475       .  S
C832        C949   1.474       .  S
C833        C882   1.496       .  S
C834       O1193   1.267   1_545  A
C834        C901   1.495       .  S
O835       V1211   1.902       .  S
O835       C1213   1.268   1_554  A
O836        V843   1.905       .  S
O836        C846   1.268       .  A
O837        V843   1.889       .  S
O837        C847   1.259       .  A
O838       V1211   1.891       .  S
O838        C848   1.260       .  A
O839       V1212   1.907       .  S
O839        C848   1.266       .  A
O840        V844   1.908       .  S
O840        C847   1.268       .  A
O841       V1212   1.889       .  S
O841       C1214   1.260       .  A
O842        V844   1.890       .  S
O842        C845   1.260       .  A
V843       O1203   1.902       .  S
V843       O1206   1.891       .  S
V843        V844   2.081       .  T
V844       O1207   1.907       .  S
V844       O1209   1.889       .  S
C845       O1203   1.268       .  A
C845        C853   1.495       .  S
C846       O1209   1.260       .  A
C846        C866   1.495       .  S
C847        C933   1.495       .  S
C848        C914   1.478       .  S
C849        C850   1.406       .  A
C849        C854   1.407       .  A
C849        H856   1.081       .  S
C850       C1219   1.426       .  A
C851       C1218   1.426       .  A
C851        C852   1.406       .  A
C851        C858   1.524       .  S
C852       C1221   1.406   1_554  A
C852        H857   1.081       .  S
C853       C1220   1.406       .  A
C853        C854   1.426       .  A
C854        C855   1.524       .  S
C855       F1227   1.385       .  S
C855       F1228   1.384       .  S
C855        F861   1.384       .  S
C858        F862   1.383       .  S
C858       F1231   1.384   1_554  S
C858       F1232   1.385       .  S
F859       C1223   1.385       .  S
F860       C1223   1.384   1_554  S
F863       C1226   1.384       .  S
F864       C1226   1.385       .  S
C865       C1234   1.405       .  A
C865        C870   1.407       .  A
C865        H872   1.082       .  S
C866       C1233   1.405       .  A
C866        C867   1.426       .  A
C867        C868   1.407       .  A
C867        C874   1.524       .  S
C868       C1237   1.406       .  A
C868        H873   1.082       .  S
C869       C1236   1.406   1_554  A
C869        C870   1.426       .  A
C870        C871   1.523       .  S
C871        F875   1.385       .  S
C871       F1244   1.384   1_554  S
C871        F877   1.384       .  S
C874        F878   1.384       .  S
C874       F1247   1.384       .  S
C874        F880   1.385       .  S
F876       C1239   1.384       .  S
F879       C1242   1.384   1_554  S
C881       C1250   1.406   1_565  A
C881        C886   1.407       .  A
C881        H888   1.081       .  S
C882       C1249   1.406   1_544  A
C883        C884   1.407       .  A
C883        C890   1.524       .  S
C884        H889   1.081       .  S
C885       C1254   1.425       .  A
C886       C1253   1.425       .  A
C886        C887   1.524       .  S
C887       F1259   1.385       .  S
C887       F1260   1.383       .  S
C887        F893   1.384       .  S
C890        F894   1.384       .  S
C890       F1263   1.383   1_554  S
C890       F1264   1.385       .  S
F891       C1255   1.385       .  S
F892       C1255   1.383   1_554  S
F895       C1258   1.383       .  S
F896       C1258   1.385       .  S
C897        C902   1.407       .  A
C897        H904   1.081       .  S
C898       C1267   1.425   1_556  A
C899       C1266   1.425       .  A
C899        C900   1.407       .  A
C899        C906   1.524       .  S
C900       C1269   1.406   1_565  A
C900        H905   1.081       .  S
C901       C1268   1.406   1_545  A
C902        C903   1.524       .  S
C903       F1275   1.385       .  S
C903       F1276   1.383       .  S
C903        F909   1.384   1_556  S
C906        F910   1.383       .  S
C906       F1279   1.383       .  S
C906       F1280   1.385       .  S
F907       C1271   1.385       .  S
F908       C1271   1.383       .  S
F911       C1274   1.383       .  S
F912       C1274   1.385       .  S
C913        C914   1.401       .  A
C913        C918   1.407       .  A
C913        H920   1.083       .  S
C914        C915   1.419       .  A
C915        C916   1.406       .  A
C915        C922   1.521       .  S
C916        C917   1.404       .  A
C916        H921   1.083       .  S
C917        C918   1.421       .  A
C918        C919   1.520       .  S
C919        F923   1.385       .  S
C919        F924   1.384       .  S
C919        F925   1.383       .  S
C922        F926   1.383       .  S
C922        F927   1.382       .  S
C922        F928   1.385       .  S
C929        C930   1.395       .  A
C929        C934   1.407       .  A
C929        H936   1.083       .  S
C930        C931   1.410       .  A
C931        C932   1.406       .  A
C931        C938   1.518       .  S
C932        C933   1.410       .  A
C932        H937   1.082       .  S
C933        C934   1.431       .  A
C934        C935   1.523       .  S
C935        F939   1.385       .  S
C935        F940   1.383       .  S
C935        F941   1.383       .  S
C938        F942   1.383       .  S
C938        F943   1.383       .  S
C938        F944   1.385       .  S
C945        C946   1.408       .  A
C945        C950   1.409       .  A
C945        H952   1.083       .  S
C947        C948   1.404       .  A
C947        C954   1.516       .  S
C948        H953   1.084       .  S
C949        C950   1.415       .  A
C950        C951   1.520       .  S
C951        F955   1.385       .  S
C951        F956   1.382       .  S
C951        F957   1.384       .  S
C954        F958   1.383       .  S
C954        F959   1.380       .  S
C954        F960   1.385       .  S
C961        C966   1.409       .  A
C961        H968   1.083       .  S
C962        C963   1.421   1_545  A
C963        C964   1.405       .  A
C963        C970   1.517       .  S
C964        C965   1.399   1_565  A
C964        H969   1.084       .  S
C966        C967   1.519       .  S
C967        F971   1.385       .  S
C967        F972   1.384       .  S
C967        F973   1.382       .  S
C970        F974   1.381       .  S
C970        F975   1.382       .  S
C970        F976   1.385       .  S
C977        C978   1.407       .  A
C977        C982   1.406       .  A
C977        H984   1.082       .  S
C978        C979   1.425       .  A
C979        C980   1.408       .  A
C979        C986   1.523       .  S
C980        C981   1.407       .  A
C980        H985   1.082       .  S
C981        C982   1.423       .  A
C982        C983   1.524       .  S
C983        F987   1.385       .  S
C983        F988   1.384       .  S
C983        F989   1.383       .  S
C986        F990   1.383       .  S
C986        F991   1.379       .  S
C986        F992   1.385       .  S
C993        C994   1.408       .  A
C993        C998   1.407       .  A
C993       H1000   1.082       .  S
C994        C995   1.425       .  A
C995        C996   1.409       .  A
C995       C1002   1.523       .  S
C996        C997   1.408       .  A
C996       H1001   1.082       .  S
C997        C998   1.422       .  A
C998        C999   1.522       .  S
C999       F1003   1.385       .  S
C999       F1004   1.383       .  S
C999       F1005   1.384       .  S
C1002      F1006   1.378       .  S
C1002      F1007   1.383       .  S
C1002      F1008   1.385       .  S
C1009      C1010   1.412       .  A
C1009      C1014   1.405       .  A
C1009      H1016   1.082       .  S
C1010      C2483   1.429       .  A
C1011      C2482   1.429       .  A
C1011      C1012   1.408       .  A
C1011      C1018   1.522       .  S
C1012      C2485   1.397   1_455  A
C1012      H1017   1.083       .  S
C1013      C2484   1.397       .  A
C1013      C1014   1.408       .  A
C1014      C1015   1.519       .  S
C1015      F1019   1.385       .  S
C1015      F1020   1.382       .  S
C1015      F1021   1.383       .  S
C1018      F1022   1.383       .  S
C1018      F1023   1.384       .  S
C1018      F1024   1.385       .  S
C1025      C1026   1.397       .  A
C1025      C1030   1.408       .  A
C1025      H1032   1.083       .  S
C1026      C2499   1.408       .  A
C1027      C2498   1.408       .  A
C1027      C1028   1.405       .  A
C1027      C1034   1.519       .  S
C1028      C2501   1.412   1_455  A
C1028      H1033   1.082       .  S
C1029      C2500   1.412       .  A
C1029      C1030   1.429       .  A
C1030      C1031   1.522       .  S
C1031      F1035   1.385       .  S
C1031      F1036   1.383       .  S
C1031      F1037   1.383       .  S
C1034      F1038   1.383       .  S
C1034      F1039   1.383       .  S
C1034      F1040   1.384       .  S
C1041      C1778   1.411       .  A
C1041      C1046   1.405       .  A
C1041      H1048   1.082       .  S
C1042      C1777   1.411   1_455  A
C1042      C1043   1.428       .  A
C1043      C1044   1.408       .  A
C1043      C1050   1.522       .  S
C1044      C1045   1.398   1_455  A
C1044      H1049   1.083       .  S
C1045      C1782   1.409       .  A
C1046      C1781   1.409       .  A
C1046      C1047   1.519       .  S
C1047      F1051   1.384       .  S
C1047      F1052   1.382       .  S
C1050      F1055   1.384       .  S
C1050      F1056   1.385       .  S
C1057      C2530   1.397       .  A
C1057      C1062   1.408       .  A
C1057      H1064   1.083       .  S
C1058      C2529   1.397   1_455  A
C1059      C1060   1.405       .  A
C1059      C1066   1.518       .  S
C1060      H1065   1.082       .  S
C1061      C2534   1.428       .  A
C1062      C2533   1.428       .  A
C1062      C1063   1.522       .  S
C1063      F1067   1.385       .  S
C1063      F1069   1.384       .  S
C1066      F1070   1.382       .  S
C1066      F1072   1.385       .  S
C1073      C2546   1.408   1_455  A
C1073      C1078   1.407       .  A
C1073      H1080   1.081       .  S
C1074      C2545   1.408       .  A
C1074      C1075   1.424       .  A
C1075      C1076   1.407       .  A
C1075      C1082   1.523       .  S
C1076      C1077   1.407       .  A
C1076      H1081   1.081       .  S
C1077      C2550   1.424       .  A
C1078      C2549   1.424       .  A
C1078      C1079   1.523       .  S
C1079      F1083   1.385       .  S
C1079      F1084   1.383       .  S
C1079      F1085   1.384       .  S
C1082      F1086   1.383       .  S
C1082      F1087   1.383       .  S
C1082      F1088   1.385       .  S
C1089      C2562   1.408   1_455  A
C1089      C1094   1.407       .  A
C1089      H1096   1.081       .  S
C1090      C2561   1.408       .  A
C1090      C1091   1.424       .  A
C1091      C1092   1.407       .  A
C1091      C1098   1.524       .  S
C1092      C1093   1.408       .  A
C1092      H1097   1.081       .  S
C1093      C2566   1.424       .  A
C1094      C2565   1.424       .  A
C1094      C1095   1.524       .  S
C1095      F1099   1.385       .  S
C1095      F1100   1.384       .  S
C1095      F1101   1.383       .  S
C1098      F1102   1.383       .  S
C1098      F1103   1.384       .  S
C1098      F1104   1.385       .  S
O1105      C1851   1.262       .  A
O1106      V1113   1.898   1_545  S
O1106      C2588   1.266       .  A
O1107      V1113   1.897       .  S
O1107      C1117   1.266       .  A
O1108      C1118   1.262       .  A
O1109      C2590   1.266   1_455  A
O1110      V1114   1.897   1_565  S
O1110      C2589   1.262       .  A
O1112      V1114   1.898       .  S
O1112      C1115   1.266   1_445  A
V1113      V2586   2.079   1_565  T
V1114      V2585   2.079   1_445  T
C1115      O1841   1.262       .  A
C1116      O2578   1.266   1_455  A
C1117      O2582   1.262       .  A
C1117      C1445   1.495       .  S
C1118      O2581   1.266       .  A
C1118      C1458   1.496       .  S
O1119      V1127   1.898       .  S
O1119      C2601   1.266   1_455  A
O1120      V1127   1.897       .  S
O1120      C2602   1.262       .  A
O1121      V1127   1.897       .  S
O1121      C2603   1.266   1_455  A
O1122      V1127   1.897       .  S
O1122      C2604   1.262       .  A
O1123      V1128   1.897       .  S
O1123      C1132   1.266       .  A
O1124      V1128   1.897       .  S
O1124      C1131   1.262       .  A
O1125      V1128   1.898       .  S
O1125      C1130   1.266       .  A
O1126      V1128   1.898       .  S
O1126      C1129   1.263       .  A
V1127      V2600   2.079   1_455  T
V1128      V2599   2.079       .  T
C1129      O2591   1.266       .  A
C1129      C1397   1.496       .  S
C1130      O2592   1.262       .  A
C1130      C1378   1.496       .  S
C1131      O2593   1.266       .  A
C1131      C1442   1.495       .  S
C1132      O2594   1.262       .  A
C1132      C1461   1.496       .  S
O1133      V1141   1.902       .  S
O1133      C1143   1.264       .  A
O1134      V1141   1.903       .  S
O1134      C1144   1.265   1_545  A
O1135      V1141   1.899   1_565  S
O1135      C1145   1.262       .  A
O1136      C1146   1.267       .  A
O1137      C1146   1.263       .  A
O1138      V1142   1.899       .  S
O1138      C1145   1.267       .  A
O1139      V1142   1.901       .  S
O1139      C1144   1.264       .  A
O1140      V1142   1.902       .  S
O1140      C1143   1.265   1_565  A
V1141      V1142   2.082   1_545  T
C1143      C1330   1.488       .  S
C1144      C1314   1.489       .  S
C1145      C1346   1.496       .  S
C1146      C1362   1.497       .  S
O1147      V1155   1.899       .  S
O1147      C1157   1.263       .  A
O1148      V1155   1.901       .  S
O1148      C1158   1.265       .  A
O1149      V1155   1.894       .  S
O1149      C1159   1.262       .  A
O1150      V1155   1.897       .  S
O1150      C1160   1.265       .  A
O1151      V1156   1.901       .  S
O1151      C1160   1.264       .  A
O1152      V1156   1.899       .  S
O1152      C1159   1.266       .  A
O1153      V1156   1.896       .  S
O1153      C1158   1.262       .  A
O1154      V1156   1.897       .  S
O1154      C1157   1.262       .  A
V1155      V1156   2.084       .  T
C1157      C1298   1.468       .  S
C1158      C1285   1.482       .  S
C1159      C1349   1.494       .  S
C1160      C1365   1.496       .  S
O1162      V2641   1.902       .  S
O1162      C1172   1.268       .  A
O1163      V1169   1.895   1_455  S
O1163      C1173   1.262   1_455  A
O1164      V2273   1.895       .  S
O1164      C2646   1.262       .  A
O1165      V2274   1.901   1_455  S
O1166      V1170   1.901       .  S
O1166      C1909   1.264       .  A
O1168      V2642   1.892   1_455  S
V1169      O2634   1.902       .  S
V1169      O2268   1.895       .  S
V1169      V1906   2.084       .  T
V1170      O2269   1.901       .  S
V1170      O2640   1.892       .  S
V1170      V1905   2.084   1_565  T
C1173      O1902   1.264       .  A
C1173      C1413   1.468       .  S
C1174      O2636   1.262   1_455  A
C1174      C1426   1.468       .  S
O1175      V1183   1.903       .  S
O1176      V2287   1.904       .  S
O1177      C1187   1.261       .  A
O1178      V1183   1.895       .  S
O1178      C1188   1.261       .  A
O1179      C1188   1.264       .  A
O1180      V2656   1.900   1_556  S
O1180      C2659   1.263       .  A
O1181      V2288   1.890       .  S
O1181      C1186   1.260       .  A
O1182      V1184   1.890       .  S
O1182      C1185   1.260       .  A
V1183      O2280   1.904       .  S
V1184      O2652   1.900   1_554  S
V1184      O2285   1.890       .  S
C1185      C1218   1.495       .  S
C1186      C1237   1.495       .  S
C1187      O2652   1.263       .  A
C1187      C1394   1.467       .  S
C1188      C1381   1.467       .  S
O1189      V1197   1.903   1_556  S
O1191      V1197   1.890       .  S
O1194      V1198   1.904       .  S
O1194      C1201   1.268   1_565  A
O1195      V1198   1.897       .  S
O1195      C1200   1.262       .  A
O1196      C1199   1.263   1_565  A
C1199      C1333   1.475       .  S
C1200      C1317   1.474       .  S
C1201      C1250   1.496       .  S
C1202      C1269   1.495       .  S
O1204      V1211   1.905       .  S
O1204      C1214   1.268       .  A
O1205      V1211   1.889   1_556  S
O1205      C1215   1.259       .  A
O1206      C1216   1.260       .  A
O1207      C1216   1.266       .  A
O1208      V1212   1.908   1_556  S
O1208      C1215   1.268       .  A
O1210      V1212   1.890   1_556  S
O1210      C1213   1.260       .  A
V1211      V1212   2.081       .  T
C1213      C1221   1.495       .  S
C1214      C1234   1.495       .  S
C1215      C1301   1.495       .  S
C1216      C1282   1.478       .  S
C1217      C1218   1.406   1_556  A
C1217      C1222   1.407       .  A
C1217      H1224   1.081       .  S
C1219      C1220   1.406       .  A
C1219      C1226   1.524       .  S
C1220      H1225   1.081       .  S
C1221      C1222   1.426       .  A
C1222      C1223   1.524       .  S
C1223      F1229   1.384       .  S
C1226      F1230   1.383       .  S
C1233      C1238   1.407       .  A
C1233      H1240   1.082       .  S
C1234      C1235   1.426   1_554  A
C1235      C1236   1.407       .  A
C1235      C1242   1.524       .  S
C1236      H1241   1.082       .  S
C1237      C1238   1.426       .  A
C1238      C1239   1.523       .  S
C1239      F1243   1.385       .  S
C1239      F1245   1.384       .  S
C1242      F1246   1.384       .  S
C1242      F1248   1.385       .  S
C1249      C1254   1.407       .  A
C1249      H1256   1.081       .  S
C1251      C1252   1.407       .  A
C1251      C1258   1.524       .  S
C1252      H1257   1.081       .  S
C1254      C1255   1.524       .  S
C1255      F1261   1.384       .  S
C1258      F1262   1.384       .  S
C1265      C1270   1.407       .  A
C1265      H1272   1.081       .  S
C1267      C1268   1.407   1_554  A
C1267      C1274   1.524       .  S
C1268      H1273   1.081   1_556  S
C1270      C1271   1.524       .  S
C1271      F1277   1.384       .  S
C1274      F1278   1.383   1_554  S
C1281      C1282   1.401       .  A
C1281      C1286   1.407       .  A
C1281      H1288   1.083       .  S
C1282      C1283   1.419       .  A
C1283      C1284   1.406       .  A
C1283      C1290   1.521       .  S
C1284      C1285   1.404       .  A
C1284      H1289   1.083       .  S
C1285      C1286   1.421       .  A
C1286      C1287   1.520       .  S
C1287      F1291   1.385       .  S
C1287      F1292   1.384       .  S
C1287      F1293   1.383       .  S
C1290      F1294   1.383       .  S
C1290      F1295   1.382       .  S
C1290      F1296   1.385       .  S
C1297      C1298   1.395       .  A
C1297      C1302   1.407       .  A
C1297      H1304   1.083       .  S
C1298      C1299   1.410       .  A
C1299      C1300   1.406       .  A
C1299      C1306   1.518       .  S
C1300      C1301   1.410       .  A
C1300      H1305   1.082       .  S
C1301      C1302   1.431       .  A
C1302      C1303   1.523       .  S
C1303      F1307   1.385       .  S
C1303      F1308   1.383       .  S
C1303      F1309   1.383       .  S
C1306      F1310   1.383       .  S
C1306      F1311   1.383       .  S
C1306      F1312   1.385       .  S
C1313      C1314   1.408       .  A
C1313      C1318   1.409       .  A
C1313      H1320   1.083       .  S
C1315      C1316   1.404       .  A
C1315      C1322   1.516       .  S
C1316      H1321   1.084       .  S
C1317      C1318   1.415       .  A
C1318      C1319   1.520       .  S
C1319      F1323   1.385       .  S
C1319      F1324   1.382       .  S
C1319      F1325   1.384       .  S
C1322      F1326   1.383       .  S
C1322      F1327   1.380       .  S
C1322      F1328   1.385       .  S
C1329      C1334   1.409       .  A
C1329      H1336   1.083       .  S
C1330      C1331   1.421   1_545  A
C1331      C1332   1.405       .  A
C1331      C1338   1.517       .  S
C1332      C1333   1.399   1_565  A
C1332      H1337   1.084       .  S
C1334      C1335   1.519       .  S
C1335      F1339   1.385       .  S
C1335      F1340   1.384       .  S
C1335      F1341   1.382       .  S
C1338      F1342   1.381       .  S
C1338      F1343   1.382       .  S
C1338      F1344   1.385       .  S
C1345      C1346   1.407       .  A
C1345      C1350   1.406       .  A
C1345      H1352   1.082       .  S
C1346      C1347   1.425       .  A
C1347      C1348   1.408       .  A
C1347      C1354   1.523       .  S
C1348      C1349   1.407       .  A
C1348      H1353   1.082       .  S
C1349      C1350   1.423       .  A
C1350      C1351   1.524       .  S
C1351      F1355   1.385       .  S
C1351      F1356   1.384       .  S
C1351      F1357   1.383       .  S
C1354      F1358   1.383       .  S
C1354      F1359   1.379       .  S
C1354      F1360   1.385       .  S
C1361      C1362   1.408       .  A
C1361      C1366   1.407       .  A
C1361      H1368   1.082       .  S
C1362      C1363   1.425       .  A
C1363      C1364   1.409       .  A
C1363      C1370   1.523       .  S
C1364      C1365   1.408       .  A
C1364      H1369   1.082       .  S
C1365      C1366   1.422       .  A
C1366      C1367   1.522       .  S
C1367      F1371   1.385       .  S
C1367      F1372   1.383       .  S
C1367      F1373   1.384       .  S
C1370      F1374   1.378       .  S
C1370      F1375   1.383       .  S
C1370      F1376   1.385       .  S
C1377      C1378   1.412       .  A
C1377      C1382   1.405       .  A
C1377      H1384   1.082       .  S
C1378      C2851   1.429       .  A
C1379      C2850   1.429       .  A
C1379      C1380   1.408       .  A
C1379      C1386   1.522       .  S
C1380      C2853   1.397   1_455  A
C1380      H1385   1.083       .  S
C1381      C2852   1.397       .  A
C1381      C1382   1.408       .  A
C1382      C1383   1.519       .  S
C1383      F1387   1.385       .  S
C1383      F1388   1.382       .  S
C1383      F1389   1.383       .  S
C1386      F1390   1.383       .  S
C1386      F1391   1.384       .  S
C1386      F1392   1.385       .  S
C1393      C1394   1.397       .  A
C1393      C1398   1.408       .  A
C1393      H1400   1.083       .  S
C1394      C2867   1.408       .  A
C1395      C2866   1.408       .  A
C1395      C1396   1.405       .  A
C1395      C1402   1.519       .  S
C1396      C2869   1.412   1_455  A
C1396      H1401   1.082       .  S
C1397      C2868   1.412       .  A
C1397      C1398   1.429       .  A
C1398      C1399   1.522       .  S
C1399      F1403   1.385       .  S
C1399      F1404   1.383       .  S
C1399      F1405   1.383       .  S
C1402      F1406   1.383       .  S
C1402      F1407   1.383       .  S
C1402      F1408   1.384       .  S
C1409      C2146   1.411       .  A
C1409      C1414   1.405       .  A
C1409      H1416   1.082       .  S
C1410      C2145   1.411   1_455  A
C1410      C1411   1.428       .  A
C1411      C1412   1.408       .  A
C1411      C1418   1.522       .  S
C1412      C1413   1.398   1_455  A
C1412      H1417   1.083       .  S
C1413      C2150   1.409       .  A
C1414      C2149   1.409       .  A
C1414      C1415   1.519       .  S
C1415      F1419   1.384       .  S
C1415      F1420   1.382       .  S
C1418      F1423   1.384       .  S
C1418      F1424   1.385       .  S
C1425      C2898   1.397       .  A
C1425      C1430   1.408       .  A
C1425      H1432   1.083       .  S
C1426      C2897   1.397   1_455  A
C1427      C1428   1.405       .  A
C1427      C1434   1.518       .  S
C1428      H1433   1.082       .  S
C1429      C2902   1.428       .  A
C1430      C2901   1.428       .  A
C1430      C1431   1.522       .  S
C1431      F1435   1.385       .  S
C1431      F1437   1.384       .  S
C1434      F1438   1.382       .  S
C1434      F1440   1.385       .  S
C1441      C2914   1.408   1_455  A
C1441      C1446   1.407       .  A
C1441      H1448   1.081       .  S
C1442      C2913   1.408       .  A
C1442      C1443   1.424       .  A
C1443      C1444   1.407       .  A
C1443      C1450   1.523       .  S
C1444      C1445   1.407       .  A
C1444      H1449   1.081       .  S
C1445      C2918   1.424       .  A
C1446      C2917   1.424       .  A
C1446      C1447   1.523       .  S
C1447      F1451   1.385       .  S
C1447      F1452   1.383       .  S
C1447      F1453   1.384       .  S
C1450      F1454   1.383       .  S
C1450      F1455   1.383       .  S
C1450      F1456   1.385       .  S
C1457      C2930   1.408   1_455  A
C1457      C1462   1.407       .  A
C1457      H1464   1.081       .  S
C1458      C2929   1.408       .  A
C1458      C1459   1.424       .  A
C1459      C1460   1.407       .  A
C1459      C1466   1.524       .  S
C1460      C1461   1.408       .  A
C1460      H1465   1.081       .  S
C1461      C2934   1.424       .  A
C1462      C2933   1.424       .  A
C1462      C1463   1.524       .  S
C1463      F1467   1.385       .  S
C1463      F1468   1.384       .  S
C1463      F1469   1.383       .  S
C1466      F1470   1.383       .  S
C1466      F1471   1.384       .  S
C1466      F1472   1.385       .  S
O1473      V2217   1.897       .  S
O1474      V1481   1.898       .  S
O1475      V1481   1.897       .  S
O1475      C1485   1.266   1_655  A
O1476      V2217   1.897   1_545  S
O1476      C1486   1.262       .  A
O1477      V2218   1.897       .  S
O1478      V1482   1.897       .  S
O1479      V2218   1.898   1_565  S
O1479      C2220   1.263   1_565  A
O1480      V1482   1.898       .  S
O1480      C1483   1.266       .  A
V1481      O2209   1.897       .  S
V1481      O2212   1.897       .  S
V1482      O2213   1.897       .  S
V1482      O2215   1.898       .  S
C1483      C2533   1.495       .  S
C1484      O2215   1.263       .  A
C1484      C2514   1.495       .  S
C1485      C1813   1.495       .  S
C1486      C1826   1.496       .  S
O1487      V1495   1.898       .  S
O1488      V1495   1.897       .  S
O1489      V1495   1.897       .  S
O1490      V1495   1.897       .  S
O1491      V1496   1.897       .  S
O1491      C1500   1.266   1_655  A
O1492      V1496   1.897       .  S
O1492      C1499   1.262       .  A
O1493      V1496   1.898       .  S
O1493      C1498   1.266   1_655  A
O1494      V1496   1.898       .  S
O1494      C1497   1.263       .  A
C1497      C1765   1.496       .  S
C1498      C1746   1.496       .  S
C1499      C1810   1.495       .  S
C1500      C1829   1.496       .  S
O1501      V1509   1.902       .  S
O1501      C1511   1.264       .  A
O1502      V1509   1.903       .  S
O1502      C1512   1.265       .  A
O1503      V1509   1.899       .  S
O1503      C1513   1.262       .  A
O1504      V2245   1.898       .  S
O1504      C1514   1.267       .  A
O1505      V2246   1.903   1_545  S
O1505      C1514   1.263       .  A
O1506      V1510   1.899       .  S
O1506      C1513   1.267       .  A
O1507      V1510   1.901       .  S
O1507      C1512   1.264       .  A
O1508      V1510   1.902       .  S
O1508      C1511   1.265       .  A
V1509      O2240   1.898       .  S
V1509      V1510   2.082       .  T
V1510      O2241   1.903       .  S
C1511      C1698   1.488       .  S
C1512      C1682   1.489       .  S
C1513      C1714   1.496       .  S
C1514      C1730   1.497       .  S
O1515      V1523   1.899       .  S
O1515      C1525   1.263       .  A
O1516      V1523   1.901       .  S
O1516      C1526   1.265       .  A
O1517      V1523   1.894       .  S
O1517      C1527   1.262       .  A
O1518      V1523   1.897       .  S
O1518      C1528   1.265       .  A
O1519      V1524   1.901       .  S
O1519      C1528   1.264       .  A
O1520      V1524   1.899       .  S
O1520      C1527   1.266       .  A
O1521      V1524   1.896       .  S
O1521      C1526   1.262       .  A
O1522      V1524   1.897       .  S
O1522      C1525   1.262       .  A
V1523      V1524   2.084       .  T
C1525      C1666   1.468       .  S
C1526      C1653   1.482       .  S
C1527      C1717   1.494       .  S
C1528      C1733   1.496       .  S
O1529      V1905   1.902       .  S
O1529      C1907   1.268   1_545  A
O1530      C1540   1.268   1_545  A
O1531      V1537   1.895   1_554  S
O1531      C1541   1.262   1_545  A
O1533      C2278   1.264       .  A
O1534      V1538   1.901   1_554  S
O1535      V1906   1.892       .  S
O1535      C2644   1.261       .  A
O1536      C2275   1.261   1_554  A
V1537      O1897   1.902       .  S
V1538      O1903   1.892       .  S
C1539      O1897   1.268   1_565  A
C1539      O2272   1.261   1_556  A
C1539      C2370   1.495       .  S
C1540      O2639   1.261       .  A
C1540      C2357   1.496       .  S
C1541      C1781   1.468       .  S
C1542      O2269   1.264       .  A
C1542      C1794   1.468       .  S
O1543      V1551   1.903   1_656  S
O1543      C1921   1.268   1_556  A
O1544      C1922   1.268       .  A
O1545      V1919   1.895       .  S
O1545      C1555   1.261       .  A
O1546      V1551   1.895   1_655  S
O1546      C1556   1.261       .  A
O1547      V1920   1.901   1_655  S
O1547      C1556   1.264       .  A
O1549      C1554   1.260       .  A
O1550      V1552   1.890   1_655  S
O1550      C1553   1.260       .  A
V1551      O1913   1.895   1_554  S
V1551      V1920   2.085       .  T
V1552      O1915   1.901   1_455  S
V1552      V1919   2.085       .  T
C1553      O1911   1.268       .  A
C1553      C1586   1.495       .  S
C1554      O1912   1.268       .  A
C1554      C1605   1.495       .  S
C1555      C1762   1.467       .  S
C1556      C1749   1.467       .  S
O1557      V1565   1.903       .  S
O1557      C2303   1.264       .  A
O1558      V1933   1.900       .  S
O1558      C2304   1.265   1_545  A
O1559      V1565   1.890       .  S
O1559      C2673   1.260       .  A
O1560      V1933   1.893       .  S
O1560      C2306   1.261   1_554  A
O1561      V1934   1.900       .  S
O1561      C1938   1.267       .  A
O1562      V1566   1.904       .  S
O1562      C1569   1.268   1_556  A
O1563      V1566   1.897   1_554  S
O1563      C1568   1.262       .  A
O1564      V1934   1.894       .  S
O1564      C1567   1.263       .  A
V1565      O1926   1.900       .  S
V1565      O1928   1.893       .  S
V1565      V2670   2.084   1_545  T
V1566      O1929   1.900       .  S
V1566      O1932   1.894       .  S
V1566      V2669   2.084   1_556  T
C1567      O2293   1.264       .  A
C1567      C1701   1.475       .  S
C1568      O2294   1.265       .  A
C1568      C1685   1.474       .  S
C1569      O2663   1.260       .  A
C1569      C1618   1.496       .  S
C1570      O2296   1.261   1_556  A
C1570      O1929   1.267       .  A
C1570      C1637   1.495       .  S
O1571      V1947   1.902       .  S
O1571      C1949   1.268   1_554  A
O1572      V1579   1.905       .  S
O1572      C1582   1.268       .  A
O1573      V1579   1.889       .  S
O1573      C1583   1.259       .  A
O1574      V1947   1.891       .  S
O1574      C1584   1.260       .  A
O1575      V1948   1.907       .  S
O1575      C1584   1.266       .  A
O1576      V1580   1.908       .  S
O1576      C1583   1.268       .  A
O1577      V1948   1.889       .  S
O1577      C1950   1.260       .  A
O1578      V1580   1.890       .  S
O1578      C1581   1.260       .  A
V1579      O1939   1.902       .  S
V1579      O1942   1.891       .  S
V1579      V1580   2.081       .  T
V1580      O1943   1.907       .  S
V1580      O1945   1.889       .  S
C1581      O1939   1.268       .  A
C1581      C1589   1.495       .  S
C1582      O1945   1.260       .  A
C1582      C1602   1.495       .  S
C1583      C1669   1.495       .  S
C1584      C1650   1.478       .  S
C1585      C1586   1.406       .  A
C1585      C1590   1.407       .  A
C1585      H1592   1.081       .  S
C1586      C1955   1.426       .  A
C1587      C1954   1.426       .  A
C1587      C1588   1.406       .  A
C1587      C1594   1.524       .  S
C1588      C1957   1.406   1_554  A
C1588      H1593   1.081       .  S
C1589      C1956   1.406       .  A
C1589      C1590   1.426       .  A
C1590      C1591   1.524       .  S
C1591      F1963   1.385       .  S
C1591      F1964   1.384       .  S
C1591      F1597   1.384       .  S
C1594      F1598   1.383       .  S
C1594      F1967   1.384   1_554  S
C1594      F1968   1.385       .  S
F1595      C1959   1.385       .  S
F1596      C1959   1.384   1_554  S
F1599      C1962   1.384       .  S
F1600      C1962   1.385       .  S
C1601      C1970   1.405       .  A
C1601      C1606   1.407       .  A
C1601      H1608   1.082       .  S
C1602      C1969   1.405       .  A
C1602      C1603   1.426       .  A
C1603      C1604   1.407       .  A
C1603      C1610   1.524       .  S
C1604      C1973   1.406       .  A
C1604      H1609   1.082       .  S
C1605      C1972   1.406   1_554  A
C1605      C1606   1.426       .  A
C1606      C1607   1.523       .  S
C1607      F1611   1.385       .  S
C1607      F1980   1.384   1_554  S
C1607      F1613   1.384       .  S
C1610      F1614   1.384       .  S
C1610      F1983   1.384       .  S
C1610      F1616   1.385       .  S
F1612      C1975   1.384       .  S
F1615      C1978   1.384   1_554  S
C1617      C1986   1.406       .  A
C1617      C1622   1.407       .  A
C1617      H1624   1.081       .  S
C1618      C1985   1.406   1_554  A
C1618      C2355   1.426       .  A
C1619      C2354   1.426       .  A
C1619      C1620   1.407       .  A
C1619      C1626   1.524       .  S
C1620      C2357   1.406   1_544  A
C1620      H1625   1.081       .  S
C1621      C2276   1.496       .  S
C1621      C2356   1.406   1_556  A
C1621      C1990   1.425       .  A
C1622      C1989   1.425       .  A
C1622      C1623   1.524       .  S
C1623      F1995   1.385       .  S
C1623      F1996   1.383       .  S
C1623      F1629   1.384       .  S
C1626      F1630   1.384       .  S
C1626      F1999   1.383   1_554  S
C1626      F2000   1.385       .  S
F1627      C1991   1.385       .  S
F1628      C1991   1.383   1_554  S
F1631      C1994   1.383       .  S
F1632      C1994   1.385       .  S
C1633      C2370   1.407   1_545  A
C1633      C1638   1.407       .  A
C1633      H1640   1.081       .  S
C1634      C2275   1.495       .  S
C1634      C2369   1.407       .  A
C1634      C2003   1.425   1_556  A
C1635      C2002   1.425       .  A
C1635      C1636   1.407       .  A
C1635      C1642   1.524       .  S
C1636      C2005   1.406       .  A
C1636      H1641   1.081       .  S
C1637      C2004   1.406       .  A
C1637      C2374   1.425       .  A
C1638      C2373   1.425       .  A
C1638      C1639   1.524       .  S
C1639      F2011   1.385       .  S
C1639      F2012   1.383       .  S
C1639      F1645   1.384   1_556  S
C1642      F1646   1.383       .  S
C1642      F2015   1.383       .  S
C1642      F2016   1.385       .  S
F1643      C2007   1.385       .  S
F1644      C2007   1.383       .  S
F1647      C2010   1.383       .  S
F1648      C2010   1.385       .  S
C1649      C1650   1.401       .  A
C1649      C1654   1.407       .  A
C1649      H1656   1.083       .  S
C1650      C1651   1.419       .  A
C1651      C1652   1.406       .  A
C1651      C1658   1.521       .  S
C1652      C1653   1.404       .  A
C1652      H1657   1.083       .  S
C1653      C1654   1.421       .  A
C1654      C1655   1.520       .  S
C1655      F1659   1.385       .  S
C1655      F1660   1.384       .  S
C1655      F1661   1.383       .  S
C1658      F1662   1.383       .  S
C1658      F1663   1.382       .  S
C1658      F1664   1.385       .  S
C1665      C1666   1.395       .  A
C1665      C1670   1.407       .  A
C1665      H1672   1.083       .  S
C1666      C1667   1.410       .  A
C1667      C1668   1.406       .  A
C1667      C1674   1.518       .  S
C1668      C1669   1.410       .  A
C1668      H1673   1.082       .  S
C1669      C1670   1.431       .  A
C1670      C1671   1.523       .  S
C1671      F1675   1.385       .  S
C1671      F1676   1.383       .  S
C1671      F1677   1.383       .  S
C1674      F1678   1.383       .  S
C1674      F1679   1.383       .  S
C1674      F1680   1.385       .  S
C1681      C1682   1.408       .  A
C1681      C1686   1.409       .  A
C1681      H1688   1.083       .  S
C1682      C2419   1.422       .  A
C1683      C2418   1.422   1_545  A
C1683      C1684   1.404       .  A
C1683      C1690   1.516       .  S
C1684      C2421   1.398   1_545  A
C1684      H1689   1.084       .  S
C1685      C2420   1.398       .  A
C1685      C1686   1.415       .  A
C1686      C1687   1.520       .  S
C1687      F1691   1.385       .  S
C1687      F1692   1.382       .  S
C1687      F1693   1.384       .  S
C1690      F1694   1.383       .  S
C1690      F1695   1.380       .  S
C1690      F1696   1.385       .  S
C1697      C2434   1.408       .  A
C1697      C1702   1.409       .  A
C1697      H1704   1.083       .  S
C1698      C2433   1.408       .  A
C1698      C1699   1.421       .  A
C1699      C1700   1.405       .  A
C1699      C1706   1.517       .  S
C1700      C1701   1.399       .  A
C1700      H1705   1.084       .  S
C1701      C2438   1.414       .  A
C1702      C2437   1.414       .  A
C1702      C1703   1.519       .  S
C1703      F1707   1.385       .  S
C1703      F1708   1.384       .  S
C1703      F1709   1.382       .  S
C1706      F1710   1.381       .  S
C1706      F1711   1.382       .  S
C1706      F1712   1.385       .  S
C1713      C1714   1.407       .  A
C1713      C1718   1.406       .  A
C1713      H1720   1.082       .  S
C1714      C1715   1.425       .  A
C1715      C1716   1.408       .  A
C1715      C1722   1.523       .  S
C1716      C1717   1.407       .  A
C1716      H1721   1.082       .  S
C1717      C1718   1.423       .  A
C1718      C1719   1.524       .  S
C1719      F1723   1.385       .  S
C1719      F1724   1.384       .  S
C1719      F1725   1.383       .  S
C1722      F1726   1.383       .  S
C1722      F1727   1.379       .  S
C1722      F1728   1.385       .  S
C1729      C1730   1.408       .  A
C1729      C1734   1.407       .  A
C1729      H1736   1.082       .  S
C1730      C1731   1.425       .  A
C1731      C1732   1.409       .  A
C1731      C1738   1.523       .  S
C1732      C1733   1.408       .  A
C1732      H1737   1.082       .  S
C1733      C1734   1.422       .  A
C1734      C1735   1.522       .  S
C1735      F1739   1.385       .  S
C1735      F1740   1.383       .  S
C1735      F1741   1.384       .  S
C1738      F1742   1.378       .  S
C1738      F1743   1.383       .  S
C1738      F1744   1.385       .  S
C1745      C1746   1.412   1_655  A
C1745      C1750   1.405       .  A
C1745      H1752   1.082       .  S
C1747      C1748   1.408       .  A
C1747      C1754   1.522       .  S
C1748      H1753   1.083       .  S
C1749      C1750   1.408       .  A
C1750      C1751   1.519       .  S
C1751      F1755   1.385       .  S
C1751      F1756   1.382       .  S
C1751      F1757   1.383       .  S
C1754      F1758   1.383       .  S
C1754      F1759   1.384       .  S
C1754      F1760   1.385       .  S
C1761      C1762   1.397   1_655  A
C1761      C1766   1.408       .  A
C1761      H1768   1.083       .  S
C1763      C1764   1.405       .  A
C1763      C1770   1.519       .  S
C1764      H1769   1.082       .  S
C1765      C1766   1.429       .  A
C1766      C1767   1.522       .  S
C1767      F1771   1.385       .  S
C1767      F1772   1.383       .  S
C1767      F1773   1.383       .  S
C1770      F1774   1.383       .  S
C1770      F1775   1.383       .  S
C1770      F1776   1.384       .  S
C1777      C1782   1.405       .  A
C1777      H1784   1.082       .  S
C1778      C2220   1.495   1_565  S
C1778      C1779   1.428   1_565  A
C1779      C1780   1.408       .  A
C1779      C1786   1.522       .  S
C1780      C1781   1.398   1_545  A
C1780      H1785   1.083       .  S
C1782      C1783   1.519       .  S
C1783      F1787   1.384       .  S
C1783      F1788   1.382       .  S
C1783      F2525   1.384       .  S
C1786      F2526   1.383   1_545  S
C1786      F1791   1.384       .  S
C1786      F1792   1.385       .  S
F1789      C2519   1.384   1_545  S
F1790      C2522   1.383       .  S
C1793      C1798   1.408       .  A
C1793      H1800   1.083       .  S
C1794      C2531   1.409       .  A
C1795      C2530   1.409       .  A
C1795      C1796   1.405       .  A
C1795      C1802   1.518       .  S
C1796      C2533   1.411       .  A
C1796      H1801   1.082       .  S
C1797      C2219   1.495       .  S
C1797      C2532   1.411       .  A
C1798      C1799   1.522       .  S
C1799      F1803   1.385       .  S
C1799      F2540   1.383   1_545  S
C1799      F1805   1.384       .  S
C1802      F1806   1.382       .  S
C1802      F2543   1.383       .  S
C1802      F1808   1.385       .  S
F1804      C2535   1.383       .  S
F1807      C2538   1.383   1_545  S
C1809      C1814   1.407       .  A
C1809      H1816   1.081       .  S
C1810      C1811   1.424       .  A
C1811      C1812   1.407       .  A
C1811      C1818   1.523       .  S
C1812      C1813   1.407   1_655  A
C1812      H1817   1.081       .  S
C1814      C1815   1.523       .  S
C1815      F1819   1.385       .  S
C1815      F1820   1.383       .  S
C1815      F1821   1.384       .  S
C1818      F1822   1.383       .  S
C1818      F1823   1.383       .  S
C1818      F1824   1.385       .  S
C1825      C1830   1.407       .  A
C1825      H1832   1.081       .  S
C1826      C1827   1.424       .  A
C1827      C1828   1.407       .  A
C1827      C1834   1.524       .  S
C1828      C1829   1.408   1_655  A
C1828      H1833   1.081       .  S
C1830      C1831   1.524       .  S
C1831      F1835   1.385       .  S
C1831      F1836   1.384       .  S
C1831      F1837   1.383       .  S
C1834      F1838   1.383       .  S
C1834      F1839   1.384       .  S
C1834      F1840   1.385       .  S
O1841      V2585   1.897       .  S
O1842      V1849   1.898       .  S
O1843      V1849   1.897       .  S
O1843      C1853   1.266   1_655  A
O1844      V2585   1.897   1_545  S
O1844      C1854   1.262       .  A
O1845      V2586   1.897       .  S
O1846      V1850   1.897       .  S
O1847      V2586   1.898   1_565  S
O1847      C2588   1.263   1_565  A
O1848      V1850   1.898       .  S
O1848      C1851   1.266       .  A
V1849      O2577   1.897       .  S
V1849      O2580   1.897       .  S
V1850      O2581   1.897       .  S
V1850      O2583   1.898       .  S
C1851      C2901   1.495       .  S
C1852      O2583   1.263       .  A
C1852      C2882   1.495       .  S
C1853      C2181   1.495       .  S
C1854      C2194   1.496       .  S
O1855      V1863   1.898       .  S
O1856      V1863   1.897       .  S
O1857      V1863   1.897       .  S
O1858      V1863   1.897       .  S
O1859      V1864   1.897       .  S
O1859      C1868   1.266   1_655  A
O1860      V1864   1.897       .  S
O1860      C1867   1.262       .  A
O1861      V1864   1.898       .  S
O1861      C1866   1.266   1_655  A
O1862      V1864   1.898       .  S
O1862      C1865   1.263       .  A
C1865      C2133   1.496       .  S
C1866      C2114   1.496       .  S
C1867      C2178   1.495       .  S
C1868      C2197   1.496       .  S
O1869      V1877   1.902       .  S
O1869      C1879   1.264       .  A
O1870      V1877   1.903       .  S
O1870      C1880   1.265       .  A
O1871      V1877   1.899       .  S
O1871      C1881   1.262       .  A
O1872      V2613   1.898       .  S
O1872      C1882   1.267       .  A
O1873      V2614   1.903   1_545  S
O1873      C1882   1.263       .  A
O1874      V1878   1.899       .  S
O1874      C1881   1.267       .  A
O1875      V1878   1.901       .  S
O1875      C1880   1.264       .  A
O1876      V1878   1.902       .  S
O1876      C1879   1.265       .  A
V1877      O2608   1.898       .  S
V1877      V1878   2.082       .  T
V1878      O2609   1.903       .  S
C1879      C2066   1.488       .  S
C1880      C2050   1.489       .  S
C1881      C2082   1.496       .  S
C1882      C2098   1.497       .  S
O1883      V1891   1.899       .  S
O1883      C1893   1.263       .  A
O1884      V1891   1.901       .  S
O1884      C1894   1.265       .  A
O1885      V1891   1.894       .  S
O1885      C1895   1.262       .  A
O1886      V1891   1.897       .  S
O1886      C1896   1.265       .  A
O1887      V1892   1.901       .  S
O1887      C1896   1.264       .  A
O1888      V1892   1.899       .  S
O1888      C1895   1.266       .  A
O1889      V1892   1.896       .  S
O1889      C1894   1.262       .  A
O1890      V1892   1.897       .  S
O1890      C1893   1.262       .  A
V1891      V1892   2.084       .  T
C1893      C2034   1.468       .  S
C1894      C2021   1.482       .  S
C1895      C2085   1.494       .  S
C1896      C2101   1.496       .  S
O1898      C1908   1.268   1_545  A
O1899      V1905   1.895       .  S
O1899      C1909   1.262   1_545  A
O1901      C2646   1.264       .  A
O1902      V1906   1.901       .  S
O1903      C2276   1.261       .  A
O1904      C2643   1.261       .  A
C1907      O2640   1.261       .  A
C1907      C2738   1.495       .  S
C1908      O2271   1.261       .  A
C1908      C2725   1.496       .  S
C1909      C2149   1.468       .  S
C1910      O2637   1.264       .  A
C1910      C2162   1.468       .  S
O1911      V1919   1.903   1_655  S
O1913      C1923   1.261       .  A
O1914      V1919   1.895   1_655  S
O1914      C1924   1.261       .  A
O1915      C1924   1.264       .  A
O1917      C1922   1.260       .  A
O1918      V1920   1.890   1_655  S
O1918      C1921   1.260       .  A
C1921      C1954   1.495       .  S
C1922      C1973   1.495       .  S
C1923      C2130   1.467       .  S
C1924      C2117   1.467       .  S
O1925      V1933   1.903   1_556  S
O1925      C2671   1.264       .  A
O1926      C2672   1.265   1_545  A
O1927      V1933   1.890       .  S
O1927      C2305   1.260       .  A
O1928      C2674   1.261       .  A
O1930      V1934   1.904       .  S
O1930      C1937   1.268       .  A
O1931      V1934   1.897       .  S
O1931      C1936   1.262       .  A
O1932      C1935   1.263       .  A
V1933      V2302   2.084   1_544  T
V1934      V2301   2.084       .  T
C1935      O2661   1.264       .  A
C1935      C2069   1.475       .  S
C1936      O2662   1.265       .  A
C1936      C2053   1.474       .  S
C1937      O2295   1.260       .  A
C1937      C1986   1.496       .  S
C1938      O2664   1.261       .  A
C1938      C2005   1.495       .  S
O1940      V1947   1.905       .  S
O1940      C1950   1.268       .  A
O1941      V1947   1.889   1_556  S
O1941      C1951   1.259       .  A
O1942      C1952   1.260       .  A
O1943      C1952   1.266       .  A
O1944      V1948   1.908   1_556  S
O1944      C1951   1.268       .  A
O1946      V1948   1.890   1_556  S
O1946      C1949   1.260       .  A
V1947      V1948   2.081       .  T
C1949      C1957   1.495       .  S
C1950      C1970   1.495       .  S
C1951      C2037   1.495       .  S
C1952      C2018   1.478       .  S
C1953      C1954   1.406   1_556  A
C1953      C1958   1.407       .  A
C1953      H1960   1.081       .  S
C1955      C1956   1.406       .  A
C1955      C1962   1.524       .  S
C1956      H1961   1.081       .  S
C1957      C1958   1.426       .  A
C1958      C1959   1.524       .  S
C1959      F1965   1.384       .  S
C1962      F1966   1.383       .  S
C1969      C1974   1.407       .  A
C1969      H1976   1.082       .  S
C1970      C1971   1.426   1_554  A
C1971      C1972   1.407       .  A
C1971      C1978   1.524       .  S
C1972      H1977   1.082       .  S
C1973      C1974   1.426       .  A
C1974      C1975   1.523       .  S
C1975      F1979   1.385       .  S
C1975      F1981   1.384       .  S
C1978      F1982   1.384       .  S
C1978      F1984   1.385       .  S
C1985      C1990   1.407       .  A
C1985      H1992   1.081       .  S
C1986      C2723   1.426       .  A
C1987      C2722   1.426       .  A
C1987      C1988   1.407       .  A
C1987      C1994   1.524       .  S
C1988      C2725   1.406   1_545  A
C1988      H1993   1.081       .  S
C1989      C2644   1.496       .  S
C1989      C2724   1.406       .  A
C1990      C1991   1.524       .  S
C1991      F1997   1.384       .  S
C1994      F1998   1.384       .  S
C2001      C2738   1.407   1_545  A
C2001      C2006   1.407       .  A
C2001      H2008   1.081       .  S
C2002      C2643   1.495       .  S
C2002      C2737   1.407       .  A
C2003      C2004   1.407   1_554  A
C2003      C2010   1.524       .  S
C2004      H2009   1.081   1_556  S
C2005      C2742   1.425       .  A
C2006      C2741   1.425       .  A
C2006      C2007   1.524       .  S
C2007      F2013   1.384       .  S
C2010      F2014   1.383   1_554  S
C2017      C2018   1.401       .  A
C2017      C2022   1.407       .  A
C2017      H2024   1.083       .  S
C2018      C2019   1.419       .  A
C2019      C2020   1.406       .  A
C2019      C2026   1.521       .  S
C2020      C2021   1.404       .  A
C2020      H2025   1.083       .  S
C2021      C2022   1.421       .  A
C2022      C2023   1.520       .  S
C2023      F2027   1.385       .  S
C2023      F2028   1.384       .  S
C2023      F2029   1.383       .  S
C2026      F2030   1.383       .  S
C2026      F2031   1.382       .  S
C2026      F2032   1.385       .  S
C2033      C2034   1.395       .  A
C2033      C2038   1.407       .  A
C2033      H2040   1.083       .  S
C2034      C2035   1.410       .  A
C2035      C2036   1.406       .  A
C2035      C2042   1.518       .  S
C2036      C2037   1.410       .  A
C2036      H2041   1.082       .  S
C2037      C2038   1.431       .  A
C2038      C2039   1.523       .  S
C2039      F2043   1.385       .  S
C2039      F2044   1.383       .  S
C2039      F2045   1.383       .  S
C2042      F2046   1.383       .  S
C2042      F2047   1.383       .  S
C2042      F2048   1.385       .  S
C2049      C2050   1.408       .  A
C2049      C2054   1.409       .  A
C2049      H2056   1.083       .  S
C2050      C2787   1.422       .  A
C2051      C2786   1.422   1_545  A
C2051      C2052   1.404       .  A
C2051      C2058   1.516       .  S
C2052      C2789   1.398   1_545  A
C2052      H2057   1.084       .  S
C2053      C2788   1.398       .  A
C2053      C2054   1.415       .  A
C2054      C2055   1.520       .  S
C2055      F2059   1.385       .  S
C2055      F2060   1.382       .  S
C2055      F2061   1.384       .  S
C2058      F2062   1.383       .  S
C2058      F2063   1.380       .  S
C2058      F2064   1.385       .  S
C2065      C2802   1.408       .  A
C2065      C2070   1.409       .  A
C2065      H2072   1.083       .  S
C2066      C2801   1.408       .  A
C2066      C2067   1.421       .  A
C2067      C2068   1.405       .  A
C2067      C2074   1.517       .  S
C2068      C2069   1.399       .  A
C2068      H2073   1.084       .  S
C2069      C2806   1.414       .  A
C2070      C2805   1.414       .  A
C2070      C2071   1.519       .  S
C2071      F2075   1.385       .  S
C2071      F2076   1.384       .  S
C2071      F2077   1.382       .  S
C2074      F2078   1.381       .  S
C2074      F2079   1.382       .  S
C2074      F2080   1.385       .  S
C2081      C2082   1.407       .  A
C2081      C2086   1.406       .  A
C2081      H2088   1.082       .  S
C2082      C2083   1.425       .  A
C2083      C2084   1.408       .  A
C2083      C2090   1.523       .  S
C2084      C2085   1.407       .  A
C2084      H2089   1.082       .  S
C2085      C2086   1.423       .  A
C2086      C2087   1.524       .  S
C2087      F2091   1.385       .  S
C2087      F2092   1.384       .  S
C2087      F2093   1.383       .  S
C2090      F2094   1.383       .  S
C2090      F2095   1.379       .  S
C2090      F2096   1.385       .  S
C2097      C2098   1.408       .  A
C2097      C2102   1.407       .  A
C2097      H2104   1.082       .  S
C2098      C2099   1.425       .  A
C2099      C2100   1.409       .  A
C2099      C2106   1.523       .  S
C2100      C2101   1.408       .  A
C2100      H2105   1.082       .  S
C2101      C2102   1.422       .  A
C2102      C2103   1.522       .  S
C2103      F2107   1.385       .  S
C2103      F2108   1.383       .  S
C2103      F2109   1.384       .  S
C2106      F2110   1.378       .  S
C2106      F2111   1.383       .  S
C2106      F2112   1.385       .  S
C2113      C2114   1.412   1_655  A
C2113      C2118   1.405       .  A
C2113      H2120   1.082       .  S
C2115      C2116   1.408       .  A
C2115      C2122   1.522       .  S
C2116      H2121   1.083       .  S
C2117      C2118   1.408       .  A
C2118      C2119   1.519       .  S
C2119      F2123   1.385       .  S
C2119      F2124   1.382       .  S
C2119      F2125   1.383       .  S
C2122      F2126   1.383       .  S
C2122      F2127   1.384       .  S
C2122      F2128   1.385       .  S
C2129      C2130   1.397   1_655  A
C2129      C2134   1.408       .  A
C2129      H2136   1.083       .  S
C2131      C2132   1.405       .  A
C2131      C2138   1.519       .  S
C2132      H2137   1.082       .  S
C2133      C2134   1.429       .  A
C2134      C2135   1.522       .  S
C2135      F2139   1.385       .  S
C2135      F2140   1.383       .  S
C2135      F2141   1.383       .  S
C2138      F2142   1.383       .  S
C2138      F2143   1.383       .  S
C2138      F2144   1.384       .  S
C2145      C2150   1.405       .  A
C2145      H2152   1.082       .  S
C2146      C2588   1.495   1_565  S
C2146      C2147   1.428   1_565  A
C2147      C2148   1.408       .  A
C2147      C2154   1.522       .  S
C2148      C2149   1.398   1_545  A
C2148      H2153   1.083       .  S
C2150      C2151   1.519       .  S
C2151      F2155   1.384       .  S
C2151      F2156   1.382       .  S
C2151      F2893   1.384       .  S
C2154      F2894   1.383   1_545  S
C2154      F2159   1.384       .  S
C2154      F2160   1.385       .  S
F2157      C2887   1.384   1_545  S
F2158      C2890   1.383       .  S
C2161      C2166   1.408       .  A
C2161      H2168   1.083       .  S
C2162      C2899   1.409       .  A
C2163      C2898   1.409       .  A
C2163      C2164   1.405       .  A
C2163      C2170   1.518       .  S
C2164      C2901   1.411       .  A
C2164      H2169   1.082       .  S
C2165      C2587   1.495       .  S
C2165      C2900   1.411       .  A
C2166      C2167   1.522       .  S
C2167      F2171   1.385       .  S
C2167      F2908   1.383   1_545  S
C2167      F2173   1.384       .  S
C2170      F2174   1.382       .  S
C2170      F2911   1.383       .  S
C2170      F2176   1.385       .  S
F2172      C2903   1.383       .  S
F2175      C2906   1.383   1_545  S
C2177      C2182   1.407       .  A
C2177      H2184   1.081       .  S
C2178      C2179   1.424       .  A
C2179      C2180   1.407       .  A
C2179      C2186   1.523       .  S
C2180      C2181   1.407   1_655  A
C2180      H2185   1.081       .  S
C2182      C2183   1.523       .  S
C2183      F2187   1.385       .  S
C2183      F2188   1.383       .  S
C2183      F2189   1.384       .  S
C2186      F2190   1.383       .  S
C2186      F2191   1.383       .  S
C2186      F2192   1.385       .  S
C2193      C2198   1.407       .  A
C2193      H2200   1.081       .  S
C2194      C2195   1.424       .  A
C2195      C2196   1.407       .  A
C2195      C2202   1.524       .  S
C2196      C2197   1.408   1_655  A
C2196      H2201   1.081       .  S
C2198      C2199   1.524       .  S
C2199      F2203   1.385       .  S
C2199      F2204   1.384       .  S
C2199      F2205   1.383       .  S
C2202      F2206   1.383       .  S
C2202      F2207   1.384       .  S
C2202      F2208   1.385       .  S
O2210      V2217   1.898   1_545  S
O2211      V2217   1.897       .  S
O2211      C2221   1.266   1_655  A
O2212      C2222   1.262       .  A
O2214      V2218   1.897   1_565  S
O2216      V2218   1.898       .  S
O2216      C2219   1.266   1_545  A
C2221      C2549   1.495       .  S
C2222      C2562   1.496       .  S
O2223      V2231   1.898       .  S
O2224      V2231   1.897       .  S
O2225      V2231   1.897       .  S
O2226      V2231   1.897       .  S
O2227      V2232   1.897       .  S
O2227      C2236   1.266   1_655  A
O2228      V2232   1.897       .  S
O2228      C2235   1.262       .  A
O2229      V2232   1.898       .  S
O2229      C2234   1.266   1_655  A
O2230      V2232   1.898       .  S
O2230      C2233   1.263       .  A
C2233      C2501   1.496       .  S
C2234      C2482   1.496       .  S
C2235      C2546   1.495       .  S
C2236      C2565   1.496       .  S
O2237      V2245   1.902       .  S
O2237      C2247   1.264       .  A
O2238      V2245   1.903       .  S
O2238      C2248   1.265   1_545  A
O2239      V2245   1.899   1_565  S
O2239      C2249   1.262       .  A
O2240      C2250   1.267       .  A
O2241      C2250   1.263       .  A
O2242      V2246   1.899       .  S
O2242      C2249   1.267       .  A
O2243      V2246   1.901       .  S
O2243      C2248   1.264       .  A
O2244      V2246   1.902       .  S
O2244      C2247   1.265   1_565  A
V2245      V2246   2.082   1_545  T
C2247      C2434   1.488       .  S
C2248      C2418   1.489       .  S
C2249      C2450   1.496       .  S
C2250      C2466   1.497       .  S
O2251      V2259   1.899       .  S
O2251      C2261   1.263       .  A
O2252      V2259   1.901       .  S
O2252      C2262   1.265       .  A
O2253      V2259   1.894       .  S
O2253      C2263   1.262       .  A
O2254      V2259   1.897       .  S
O2254      C2264   1.265       .  A
O2255      V2260   1.901       .  S
O2255      C2264   1.264       .  A
O2256      V2260   1.899       .  S
O2256      C2263   1.266       .  A
O2257      V2260   1.896       .  S
O2257      C2262   1.262       .  A
O2258      V2260   1.897       .  S
O2258      C2261   1.262       .  A
V2259      V2260   2.084       .  T
C2261      C2402   1.468       .  S
C2262      C2389   1.482       .  S
C2263      C2453   1.494       .  S
C2264      C2469   1.496       .  S
O2265      V2641   1.902       .  S
O2265      C2643   1.268       .  A
O2266      C2276   1.268       .  A
O2267      V2273   1.895   1_554  S
O2267      C2277   1.262       .  A
O2270      V2274   1.901   1_554  S
O2271      V2642   1.892       .  S
V2273      O2633   1.902       .  S
V2274      O2639   1.892       .  S
C2275      O2633   1.268       .  A
C2277      C2517   1.468       .  S
C2278      C2530   1.468       .  S
O2279      V2287   1.903   1_656  S
O2279      C2657   1.268   1_556  A
O2280      C2658   1.268       .  A
O2281      V2655   1.895       .  S
O2281      C2291   1.261       .  A
O2282      V2287   1.895   1_655  S
O2282      C2292   1.261       .  A
O2283      V2656   1.901   1_655  S
O2283      C2292   1.264       .  A
O2285      C2290   1.260       .  A
O2286      V2288   1.890   1_655  S
O2286      C2289   1.260       .  A
V2287      O2649   1.895   1_554  S
V2287      V2656   2.085       .  T
V2288      O2651   1.901   1_455  S
V2288      V2655   2.085       .  T
C2289      O2647   1.268       .  A
C2289      C2322   1.495       .  S
C2290      O2648   1.268       .  A
C2290      C2341   1.495       .  S
C2291      C2498   1.467       .  S
C2292      C2485   1.467       .  S
O2293      V2301   1.903       .  S
O2294      V2669   1.900       .  S
O2295      V2301   1.890       .  S
O2296      V2669   1.893       .  S
O2297      V2670   1.900       .  S
O2297      C2674   1.267   1_565  A
O2298      V2302   1.904       .  S
O2298      C2305   1.268   1_566  A
O2299      V2302   1.897   1_554  S
O2299      C2304   1.262       .  A
O2300      V2670   1.894       .  S
O2300      C2303   1.263   1_565  A
V2301      O2662   1.900       .  S
V2301      O2664   1.893       .  S
V2302      O2665   1.900       .  S
V2302      O2668   1.894       .  S
C2303      C2437   1.475       .  S
C2304      C2421   1.474       .  S
C2305      C2354   1.496       .  S
C2306      O2665   1.267   1_545  A
C2306      C2373   1.495       .  S
O2307      V2683   1.902       .  S
O2307      C2685   1.268   1_554  A
O2308      V2315   1.905       .  S
O2308      C2318   1.268       .  A
O2309      V2315   1.889       .  S
O2309      C2319   1.259       .  A
O2310      V2683   1.891       .  S
O2310      C2320   1.260       .  A
O2311      V2684   1.907       .  S
O2311      C2320   1.266       .  A
O2312      V2316   1.908       .  S
O2312      C2319   1.268       .  A
O2313      V2684   1.889       .  S
O2313      C2686   1.260       .  A
O2314      V2316   1.890       .  S
O2314      C2317   1.260       .  A
V2315      O2675   1.902       .  S
V2315      O2678   1.891       .  S
V2315      V2316   2.081       .  T
V2316      O2679   1.907       .  S
V2316      O2681   1.889       .  S
C2317      O2675   1.268       .  A
C2317      C2325   1.495       .  S
C2318      O2681   1.260       .  A
C2318      C2338   1.495       .  S
C2319      C2405   1.495       .  S
C2320      C2386   1.478       .  S
C2321      C2322   1.406       .  A
C2321      C2326   1.407       .  A
C2321      H2328   1.081       .  S
C2322      C2691   1.426       .  A
C2323      C2690   1.426       .  A
C2323      C2324   1.406       .  A
C2323      C2330   1.524       .  S
C2324      C2693   1.406   1_554  A
C2324      H2329   1.081       .  S
C2325      C2692   1.406       .  A
C2325      C2326   1.426       .  A
C2326      C2327   1.524       .  S
C2327      F2699   1.385       .  S
C2327      F2700   1.384       .  S
C2327      F2333   1.384       .  S
C2330      F2334   1.383       .  S
C2330      F2703   1.384   1_554  S
C2330      F2704   1.385       .  S
F2331      C2695   1.385       .  S
F2332      C2695   1.384   1_554  S
F2335      C2698   1.384       .  S
F2336      C2698   1.385       .  S
C2337      C2706   1.405       .  A
C2337      C2342   1.407       .  A
C2337      H2344   1.082       .  S
C2338      C2705   1.405       .  A
C2338      C2339   1.426       .  A
C2339      C2340   1.407       .  A
C2339      C2346   1.524       .  S
C2340      C2709   1.406       .  A
C2340      H2345   1.082       .  S
C2341      C2708   1.406   1_554  A
C2341      C2342   1.426       .  A
C2342      C2343   1.523       .  S
C2343      F2347   1.385       .  S
C2343      F2716   1.384   1_554  S
C2343      F2349   1.384       .  S
C2346      F2350   1.384       .  S
C2346      F2719   1.384       .  S
C2346      F2352   1.385       .  S
F2348      C2711   1.384       .  S
F2351      C2714   1.384   1_554  S
C2353      C2722   1.406   1_565  A
C2353      C2358   1.407       .  A
C2353      H2360   1.081       .  S
C2354      C2721   1.406   1_544  A
C2355      C2356   1.407       .  A
C2355      C2362   1.524       .  S
C2356      H2361   1.081       .  S
C2357      C2726   1.425       .  A
C2358      C2725   1.425       .  A
C2358      C2359   1.524       .  S
C2359      F2731   1.385       .  S
C2359      F2732   1.383       .  S
C2359      F2365   1.384       .  S
C2362      F2366   1.384       .  S
C2362      F2735   1.383   1_554  S
C2362      F2736   1.385       .  S
F2363      C2727   1.385       .  S
F2364      C2727   1.383   1_554  S
F2367      C2730   1.383       .  S
F2368      C2730   1.385       .  S
C2369      C2374   1.407       .  A
C2369      H2376   1.081       .  S
C2370      C2739   1.425   1_556  A
C2371      C2738   1.425       .  A
C2371      C2372   1.407       .  A
C2371      C2378   1.524       .  S
C2372      C2741   1.406   1_565  A
C2372      H2377   1.081       .  S
C2373      C2740   1.406   1_545  A
C2374      C2375   1.524       .  S
C2375      F2747   1.385       .  S
C2375      F2748   1.383       .  S
C2375      F2381   1.384   1_556  S
C2378      F2382   1.383       .  S
C2378      F2751   1.383       .  S
C2378      F2752   1.385       .  S
F2379      C2743   1.385       .  S
F2380      C2743   1.383       .  S
F2383      C2746   1.383       .  S
F2384      C2746   1.385       .  S
C2385      C2386   1.401       .  A
C2385      C2390   1.407       .  A
C2385      H2392   1.083       .  S
C2386      C2387   1.419       .  A
C2387      C2388   1.406       .  A
C2387      C2394   1.521       .  S
C2388      C2389   1.404       .  A
C2388      H2393   1.083       .  S
C2389      C2390   1.421       .  A
C2390      C2391   1.520       .  S
C2391      F2395   1.385       .  S
C2391      F2396   1.384       .  S
C2391      F2397   1.383       .  S
C2394      F2398   1.383       .  S
C2394      F2399   1.382       .  S
C2394      F2400   1.385       .  S
C2401      C2402   1.395       .  A
C2401      C2406   1.407       .  A
C2401      H2408   1.083       .  S
C2402      C2403   1.410       .  A
C2403      C2404   1.406       .  A
C2403      C2410   1.518       .  S
C2404      C2405   1.410       .  A
C2404      H2409   1.082       .  S
C2405      C2406   1.431       .  A
C2406      C2407   1.523       .  S
C2407      F2411   1.385       .  S
C2407      F2412   1.383       .  S
C2407      F2413   1.383       .  S
C2410      F2414   1.383       .  S
C2410      F2415   1.383       .  S
C2410      F2416   1.385       .  S
C2417      C2418   1.408       .  A
C2417      C2422   1.409       .  A
C2417      H2424   1.083       .  S
C2419      C2420   1.404       .  A
C2419      C2426   1.516       .  S
C2420      H2425   1.084       .  S
C2421      C2422   1.415       .  A
C2422      C2423   1.520       .  S
C2423      F2427   1.385       .  S
C2423      F2428   1.382       .  S
C2423      F2429   1.384       .  S
C2426      F2430   1.383       .  S
C2426      F2431   1.380       .  S
C2426      F2432   1.385       .  S
C2433      C2438   1.409       .  A
C2433      H2440   1.083       .  S
C2434      C2435   1.421   1_545  A
C2435      C2436   1.405       .  A
C2435      C2442   1.517       .  S
C2436      C2437   1.399   1_565  A
C2436      H2441   1.084       .  S
C2438      C2439   1.519       .  S
C2439      F2443   1.385       .  S
C2439      F2444   1.384       .  S
C2439      F2445   1.382       .  S
C2442      F2446   1.381       .  S
C2442      F2447   1.382       .  S
C2442      F2448   1.385       .  S
C2449      C2450   1.407       .  A
C2449      C2454   1.406       .  A
C2449      H2456   1.082       .  S
C2450      C2451   1.425       .  A
C2451      C2452   1.408       .  A
C2451      C2458   1.523       .  S
C2452      C2453   1.407       .  A
C2452      H2457   1.082       .  S
C2453      C2454   1.423       .  A
C2454      C2455   1.524       .  S
C2455      F2459   1.385       .  S
C2455      F2460   1.384       .  S
C2455      F2461   1.383       .  S
C2458      F2462   1.383       .  S
C2458      F2463   1.379       .  S
C2458      F2464   1.385       .  S
C2465      C2466   1.408       .  A
C2465      C2470   1.407       .  A
C2465      H2472   1.082       .  S
C2466      C2467   1.425       .  A
C2467      C2468   1.409       .  A
C2467      C2474   1.523       .  S
C2468      C2469   1.408       .  A
C2468      H2473   1.082       .  S
C2469      C2470   1.422       .  A
C2470      C2471   1.522       .  S
C2471      F2475   1.385       .  S
C2471      F2476   1.383       .  S
C2471      F2477   1.384       .  S
C2474      F2478   1.378       .  S
C2474      F2479   1.383       .  S
C2474      F2480   1.385       .  S
C2481      C2482   1.412   1_655  A
C2481      C2486   1.405       .  A
C2481      H2488   1.082       .  S
C2483      C2484   1.408       .  A
C2483      C2490   1.522       .  S
C2484      H2489   1.083       .  S
C2485      C2486   1.408       .  A
C2486      C2487   1.519       .  S
C2487      F2491   1.385       .  S
C2487      F2492   1.382       .  S
C2487      F2493   1.383       .  S
C2490      F2494   1.383       .  S
C2490      F2495   1.384       .  S
C2490      F2496   1.385       .  S
C2497      C2498   1.397   1_655  A
C2497      C2502   1.408       .  A
C2497      H2504   1.083       .  S
C2499      C2500   1.405       .  A
C2499      C2506   1.519       .  S
C2500      H2505   1.082       .  S
C2501      C2502   1.429       .  A
C2502      C2503   1.522       .  S
C2503      F2507   1.385       .  S
C2503      F2508   1.383       .  S
C2503      F2509   1.383       .  S
C2506      F2510   1.383       .  S
C2506      F2511   1.383       .  S
C2506      F2512   1.384       .  S
C2513      C2518   1.405       .  A
C2513      H2520   1.082       .  S
C2514      C2515   1.428       .  A
C2515      C2516   1.408       .  A
C2515      C2522   1.522       .  S
C2516      C2517   1.398       .  A
C2516      H2521   1.083       .  S
C2518      C2519   1.519       .  S
C2519      F2523   1.384       .  S
C2519      F2524   1.382       .  S
C2522      F2527   1.384       .  S
C2522      F2528   1.385       .  S
C2529      C2534   1.408       .  A
C2529      H2536   1.083       .  S
C2531      C2532   1.405       .  A
C2531      C2538   1.518       .  S
C2532      H2537   1.082       .  S
C2534      C2535   1.522       .  S
C2535      F2539   1.385       .  S
C2535      F2541   1.384       .  S
C2538      F2542   1.382       .  S
C2538      F2544   1.385       .  S
C2545      C2550   1.407       .  A
C2545      H2552   1.081       .  S
C2546      C2547   1.424       .  A
C2547      C2548   1.407       .  A
C2547      C2554   1.523       .  S
C2548      C2549   1.407   1_655  A
C2548      H2553   1.081       .  S
C2550      C2551   1.523       .  S
C2551      F2555   1.385       .  S
C2551      F2556   1.383       .  S
C2551      F2557   1.384       .  S
C2554      F2558   1.383       .  S
C2554      F2559   1.383       .  S
C2554      F2560   1.385       .  S
C2561      C2566   1.407       .  A
C2561      H2568   1.081       .  S
C2562      C2563   1.424       .  A
C2563      C2564   1.407       .  A
C2563      C2570   1.524       .  S
C2564      C2565   1.408   1_655  A
C2564      H2569   1.081       .  S
C2566      C2567   1.524       .  S
C2567      F2571   1.385       .  S
C2567      F2572   1.384       .  S
C2567      F2573   1.383       .  S
C2570      F2574   1.383       .  S
C2570      F2575   1.384       .  S
C2570      F2576   1.385       .  S
O2578      V2585   1.898   1_545  S
O2579      V2585   1.897       .  S
O2579      C2589   1.266   1_655  A
O2580      C2590   1.262       .  A
O2582      V2586   1.897   1_565  S
O2584      V2586   1.898       .  S
O2584      C2587   1.266   1_545  A
C2589      C2917   1.495       .  S
C2590      C2930   1.496       .  S
O2591      V2599   1.898       .  S
O2592      V2599   1.897       .  S
O2593      V2599   1.897       .  S
O2594      V2599   1.897       .  S
O2595      V2600   1.897       .  S
O2595      C2604   1.266   1_655  A
O2596      V2600   1.897       .  S
O2596      C2603   1.262       .  A
O2597      V2600   1.898       .  S
O2597      C2602   1.266   1_655  A
O2598      V2600   1.898       .  S
O2598      C2601   1.263       .  A
C2601      C2869   1.496       .  S
C2602      C2850   1.496       .  S
C2603      C2914   1.495       .  S
C2604      C2933   1.496       .  S
O2605      V2613   1.902       .  S
O2605      C2615   1.264       .  A
O2606      V2613   1.903       .  S
O2606      C2616   1.265   1_545  A
O2607      V2613   1.899   1_565  S
O2607      C2617   1.262       .  A
O2608      C2618   1.267       .  A
O2609      C2618   1.263       .  A
O2610      V2614   1.899       .  S
O2610      C2617   1.267       .  A
O2611      V2614   1.901       .  S
O2611      C2616   1.264       .  A
O2612      V2614   1.902       .  S
O2612      C2615   1.265   1_565  A
V2613      V2614   2.082   1_545  T
C2615      C2802   1.488       .  S
C2616      C2786   1.489       .  S
C2617      C2818   1.496       .  S
C2618      C2834   1.497       .  S
O2619      V2627   1.899       .  S
O2619      C2629   1.263       .  A
O2620      V2627   1.901       .  S
O2620      C2630   1.265       .  A
O2621      V2627   1.894       .  S
O2621      C2631   1.262       .  A
O2622      V2627   1.897       .  S
O2622      C2632   1.265       .  A
O2623      V2628   1.901       .  S
O2623      C2632   1.264       .  A
O2624      V2628   1.899       .  S
O2624      C2631   1.266       .  A
O2625      V2628   1.896       .  S
O2625      C2630   1.262       .  A
O2626      V2628   1.897       .  S
O2626      C2629   1.262       .  A
V2627      V2628   2.084       .  T
C2629      C2770   1.468       .  S
C2630      C2757   1.482       .  S
C2631      C2821   1.494       .  S
C2632      C2837   1.496       .  S
O2634      C2644   1.268       .  A
O2635      V2641   1.895       .  S
O2635      C2645   1.262       .  A
O2638      V2642   1.901       .  S
C2645      C2885   1.468       .  S
C2646      C2898   1.468       .  S
O2647      V2655   1.903   1_655  S
O2649      C2659   1.261       .  A
O2650      V2655   1.895   1_655  S
O2650      C2660   1.261       .  A
O2651      C2660   1.264       .  A
O2653      C2658   1.260       .  A
O2654      V2656   1.890   1_655  S
O2654      C2657   1.260       .  A
C2657      C2690   1.495       .  S
C2658      C2709   1.495       .  S
C2659      C2866   1.467       .  S
C2660      C2853   1.467       .  S
O2661      V2669   1.903   1_556  S
O2663      V2669   1.890       .  S
O2666      V2670   1.904       .  S
O2666      C2673   1.268   1_565  A
O2667      V2670   1.897       .  S
O2667      C2672   1.262       .  A
O2668      C2671   1.263   1_565  A
C2671      C2805   1.475       .  S
C2672      C2789   1.474       .  S
C2673      C2722   1.496       .  S
C2674      C2741   1.495       .  S
O2676      V2683   1.905       .  S
O2676      C2686   1.268       .  A
O2677      V2683   1.889   1_556  S
O2677      C2687   1.259       .  A
O2678      C2688   1.260       .  A
O2679      C2688   1.266       .  A
O2680      V2684   1.908   1_556  S
O2680      C2687   1.268       .  A
O2682      V2684   1.890   1_556  S
O2682      C2685   1.260       .  A
V2683      V2684   2.081       .  T
C2685      C2693   1.495       .  S
C2686      C2706   1.495       .  S
C2687      C2773   1.495       .  S
C2688      C2754   1.478       .  S
C2689      C2690   1.406   1_556  A
C2689      C2694   1.407       .  A
C2689      H2696   1.081       .  S
C2691      C2692   1.406       .  A
C2691      C2698   1.524       .  S
C2692      H2697   1.081       .  S
C2693      C2694   1.426       .  A
C2694      C2695   1.524       .  S
C2695      F2701   1.384       .  S
C2698      F2702   1.383       .  S
C2705      C2710   1.407       .  A
C2705      H2712   1.082       .  S
C2706      C2707   1.426   1_554  A
C2707      C2708   1.407       .  A
C2707      C2714   1.524       .  S
C2708      H2713   1.082       .  S
C2709      C2710   1.426       .  A
C2710      C2711   1.523       .  S
C2711      F2715   1.385       .  S
C2711      F2717   1.384       .  S
C2714      F2718   1.384       .  S
C2714      F2720   1.385       .  S
C2721      C2726   1.407       .  A
C2721      H2728   1.081       .  S
C2723      C2724   1.407       .  A
C2723      C2730   1.524       .  S
C2724      H2729   1.081       .  S
C2726      C2727   1.524       .  S
C2727      F2733   1.384       .  S
C2730      F2734   1.384       .  S
C2737      C2742   1.407       .  A
C2737      H2744   1.081       .  S
C2739      C2740   1.407   1_554  A
C2739      C2746   1.524       .  S
C2740      H2745   1.081   1_556  S
C2742      C2743   1.524       .  S
C2743      F2749   1.384       .  S
C2746      F2750   1.383   1_554  S
C2753      C2754   1.401       .  A
C2753      C2758   1.407       .  A
C2753      H2760   1.083       .  S
C2754      C2755   1.419       .  A
C2755      C2756   1.406       .  A
C2755      C2762   1.521       .  S
C2756      C2757   1.404       .  A
C2756      H2761   1.083       .  S
C2757      C2758   1.421       .  A
C2758      C2759   1.520       .  S
C2759      F2763   1.385       .  S
C2759      F2764   1.384       .  S
C2759      F2765   1.383       .  S
C2762      F2766   1.383       .  S
C2762      F2767   1.382       .  S
C2762      F2768   1.385       .  S
C2769      C2770   1.395       .  A
C2769      C2774   1.407       .  A
C2769      H2776   1.083       .  S
C2770      C2771   1.410       .  A
C2771      C2772   1.406       .  A
C2771      C2778   1.518       .  S
C2772      C2773   1.410       .  A
C2772      H2777   1.082       .  S
C2773      C2774   1.431       .  A
C2774      C2775   1.523       .  S
C2775      F2779   1.385       .  S
C2775      F2780   1.383       .  S
C2775      F2781   1.383       .  S
C2778      F2782   1.383       .  S
C2778      F2783   1.383       .  S
C2778      F2784   1.385       .  S
C2785      C2786   1.408       .  A
C2785      C2790   1.409       .  A
C2785      H2792   1.083       .  S
C2787      C2788   1.404       .  A
C2787      C2794   1.516       .  S
C2788      H2793   1.084       .  S
C2789      C2790   1.415       .  A
C2790      C2791   1.520       .  S
C2791      F2795   1.385       .  S
C2791      F2796   1.382       .  S
C2791      F2797   1.384       .  S
C2794      F2798   1.383       .  S
C2794      F2799   1.380       .  S
C2794      F2800   1.385       .  S
C2801      C2806   1.409       .  A
C2801      H2808   1.083       .  S
C2802      C2803   1.421   1_545  A
C2803      C2804   1.405       .  A
C2803      C2810   1.517       .  S
C2804      C2805   1.399   1_565  A
C2804      H2809   1.084       .  S
C2806      C2807   1.519       .  S
C2807      F2811   1.385       .  S
C2807      F2812   1.384       .  S
C2807      F2813   1.382       .  S
C2810      F2814   1.381       .  S
C2810      F2815   1.382       .  S
C2810      F2816   1.385       .  S
C2817      C2818   1.407       .  A
C2817      C2822   1.406       .  A
C2817      H2824   1.082       .  S
C2818      C2819   1.425       .  A
C2819      C2820   1.408       .  A
C2819      C2826   1.523       .  S
C2820      C2821   1.407       .  A
C2820      H2825   1.082       .  S
C2821      C2822   1.423       .  A
C2822      C2823   1.524       .  S
C2823      F2827   1.385       .  S
C2823      F2828   1.384       .  S
C2823      F2829   1.383       .  S
C2826      F2830   1.383       .  S
C2826      F2831   1.379       .  S
C2826      F2832   1.385       .  S
C2833      C2834   1.408       .  A
C2833      C2838   1.407       .  A
C2833      H2840   1.082       .  S
C2834      C2835   1.425       .  A
C2835      C2836   1.409       .  A
C2835      C2842   1.523       .  S
C2836      C2837   1.408       .  A
C2836      H2841   1.082       .  S
C2837      C2838   1.422       .  A
C2838      C2839   1.522       .  S
C2839      F2843   1.385       .  S
C2839      F2844   1.383       .  S
C2839      F2845   1.384       .  S
C2842      F2846   1.378       .  S
C2842      F2847   1.383       .  S
C2842      F2848   1.385       .  S
C2849      C2850   1.412   1_655  A
C2849      C2854   1.405       .  A
C2849      H2856   1.082       .  S
C2851      C2852   1.408       .  A
C2851      C2858   1.522       .  S
C2852      H2857   1.083       .  S
C2853      C2854   1.408       .  A
C2854      C2855   1.519       .  S
C2855      F2859   1.385       .  S
C2855      F2860   1.382       .  S
C2855      F2861   1.383       .  S
C2858      F2862   1.383       .  S
C2858      F2863   1.384       .  S
C2858      F2864   1.385       .  S
C2865      C2866   1.397   1_655  A
C2865      C2870   1.408       .  A
C2865      H2872   1.083       .  S
C2867      C2868   1.405       .  A
C2867      C2874   1.519       .  S
C2868      H2873   1.082       .  S
C2869      C2870   1.429       .  A
C2870      C2871   1.522       .  S
C2871      F2875   1.385       .  S
C2871      F2876   1.383       .  S
C2871      F2877   1.383       .  S
C2874      F2878   1.383       .  S
C2874      F2879   1.383       .  S
C2874      F2880   1.384       .  S
C2881      C2886   1.405       .  A
C2881      H2888   1.082       .  S
C2882      C2883   1.428       .  A
C2883      C2884   1.408       .  A
C2883      C2890   1.522       .  S
C2884      C2885   1.398       .  A
C2884      H2889   1.083       .  S
C2886      C2887   1.519       .  S
C2887      F2891   1.384       .  S
C2887      F2892   1.382       .  S
C2890      F2895   1.384       .  S
C2890      F2896   1.385       .  S
C2897      C2902   1.408       .  A
C2897      H2904   1.083       .  S
C2899      C2900   1.405       .  A
C2899      C2906   1.518       .  S
C2900      H2905   1.082       .  S
C2902      C2903   1.522       .  S
C2903      F2907   1.385       .  S
C2903      F2909   1.384       .  S
C2906      F2910   1.382       .  S
C2906      F2912   1.385       .  S
C2913      C2918   1.407       .  A
C2913      H2920   1.081       .  S
C2914      C2915   1.424       .  A
C2915      C2916   1.407       .  A
C2915      C2922   1.523       .  S
C2916      C2917   1.407   1_655  A
C2916      H2921   1.081       .  S
C2918      C2919   1.523       .  S
C2919      F2923   1.385       .  S
C2919      F2924   1.383       .  S
C2919      F2925   1.384       .  S
C2922      F2926   1.383       .  S
C2922      F2927   1.383       .  S
C2922      F2928   1.385       .  S
C2929      C2934   1.407       .  A
C2929      H2936   1.081       .  S
C2930      C2931   1.424       .  A
C2931      C2932   1.407       .  A
C2931      C2938   1.524       .  S
C2932      C2933   1.408   1_655  A
C2932      H2937   1.081       .  S
C2934      C2935   1.524       .  S
C2935      F2939   1.385       .  S
C2935      F2940   1.384       .  S
C2935      F2941   1.383       .  S
C2938      F2942   1.383       .  S
C2938      F2943   1.384       .  S
C2938      F2944   1.385       .  S
