geometry optimzed in LAMMPS
_audit_creation_date              2020-11-30 
_audit_creation_method            'lammps2cif' 
_symmetry_space_group_name_H-M    'P1' 
_symmetry_Int_Tables_number       1 
_symmetry_cell_setting            triclinic 
loop_ 
_symmetry_equiv_pos_as_xyz 
  x,y,z 
_cell_length_a                    35.41834111 
_cell_length_b                    34.109401377854496 
_cell_length_c                    68.78230649449533 
_cell_angle_alpha                 89.62182987164451 
_cell_angle_beta                  90.09283912340553 
_cell_angle_gamma                 121.05868952836083 
loop_ 
_atom_site_label 
_atom_site_type_symbol 
_atom_site_fract_x 
_atom_site_fract_y 
_atom_site_fract_z 
_atom_site_charge 
C1          C  0.30570150  0.29816222  0.11949358     0.04200
C2          C  0.34011158  0.29206838  0.12598494    -0.12000
C3          C  0.37102488  0.32230102  0.13951149     0.01700
C4          C  0.36797829  0.35921301  0.14623686    -0.10500
C5          C  0.33428556  0.36606356  0.13983314     0.04200
C6          C  0.30290071  0.33517380  0.12665609    -0.09900
H7          H  0.34202697  0.26304140  0.12105866     0.09800
H8          H  0.39173215  0.38247565  0.15673806     0.07300
H9          H  0.27686231  0.34056260  0.12168404     0.07100
C10         C  0.68183928  0.34840861  0.22836759     0.46500
H11         H  0.68404067  0.34983578  0.24449626    -0.02500
C12         C  0.67703048  0.34550827  0.19057255     0.46600
H13         H  0.67562124  0.34482543  0.17446270    -0.02500
C14         C  0.71748389  0.39199414  0.21831223    -0.16200
C15         C  0.68575297  0.30953123  0.21959465    -0.16000
C16         C  0.63833351  0.34122718  0.22047154    -0.16300
C17         C  0.71501511  0.39079601  0.19840479    -0.16300
C18         C  0.68319262  0.30782413  0.19958536    -0.15900
C19         C  0.63532054  0.33900386  0.20050305    -0.16200
C20         C  0.33294481  0.66713844  0.23710519     0.46500
H21         H  0.33362175  0.66995029  0.25318362    -0.02500
C22         C  0.33134133  0.66172943  0.19932572     0.46600
H23         H  0.33074759  0.65935487  0.18320674    -0.02500
C24         C  0.32807823  0.62237471  0.22967775    -0.16200
C25         C  0.29509352  0.66990493  0.22764612    -0.16000
C26         C  0.37480654  0.70522312  0.22720867    -0.16300
C27         C  0.32765509  0.62000345  0.20968844    -0.16300
C28         C  0.29404983  0.66661189  0.20771480    -0.15900
C29         C  0.37354321  0.70276735  0.20726052    -0.16200
C30         C  0.02482277  0.70825099  0.10957557     0.04200
C31         C  0.98280000  0.67586822  0.11682273    -0.12000
C32         C  0.97815984  0.64567216  0.13183785     0.01700
C33         C  0.01565005  0.64702268  0.13922981    -0.10500
C34         C  0.05764562  0.67841458  0.13196457     0.04200
C35         C  0.06222953  0.70940654  0.11730365    -0.09900
H36         H  0.95378526  0.67495755  0.11116351     0.09800
H37         H  0.01211958  0.62339417  0.15070320     0.07300
H38         H  0.09471375  0.73356671  0.11163027     0.07100
C39         C  0.68133864  0.99576390  0.10828117     0.04200
C40         C  0.68756065  0.03760575  0.11499563    -0.12000
C41         C  0.66020086  0.03850068  0.12949052     0.01700
C42         C  0.62624051  0.99697636  0.13712709    -0.10500
C43         C  0.61872542  0.95509184  0.13022890     0.04200
C44         C  0.64652854  0.95447564  0.11592900    -0.09900
H45         H  0.71367192  0.06945825  0.10887321     0.09800
H46         H  0.60541791  0.99700251  0.14865218     0.07300
H47         H  0.64019348  0.92196685  0.11039658     0.07100
C48         C  0.01125366  0.71981799  0.30684788     0.04200
C49         C  0.97040197  0.68441145  0.30002677    -0.12000
C50         C  0.96856866  0.65184098  0.28721927     0.01700
C51         C  0.00763007  0.65538037  0.28079264    -0.10500
C52         C  0.04864088  0.69005312  0.28763377     0.04200
C53         C  0.05019735  0.72232084  0.30063705    -0.09900
H54         H  0.94002947  0.68132998  0.30511043     0.09800
H55         H  0.00587828  0.63086556  0.27033416     0.07300
H56         H  0.08164373  0.74914580  0.30609648     0.07100
C57         C  0.69678891  0.00723507  0.31502994     0.04200
C58         C  0.70667593  0.04947236  0.30683177    -0.12000
C59         C  0.68165371  0.05082931  0.29125803     0.01700
C60         C  0.64677476  0.00969185  0.28396623    -0.10500
C61         C  0.63681570  0.96744417  0.29180322     0.04200
C62         C  0.66173178  0.96639039  0.30741463    -0.09900
H63         H  0.73389398  0.08108726  0.31245927     0.09800
H64         H  0.62665502  0.01059668  0.27228003     0.07300
H65         H  0.65463922  0.93367043  0.31323893     0.07100
C66         C  0.33150912  0.30659713  0.31775201     0.04200
C67         C  0.32325280  0.34048163  0.31086879    -0.12000
C68         C  0.35041950  0.37241223  0.29665071     0.01700
C69         C  0.38573367  0.36947662  0.28913143    -0.10500
C70         C  0.39470929  0.33630200  0.29595092     0.04200
C71         C  0.36736716  0.30479371  0.31013203    -0.09900
H72         H  0.29584922  0.34221043  0.31672445     0.09800
H73         H  0.40621115  0.39280307  0.27771458     0.07300
H74         H  0.37480389  0.27964426  0.31557515     0.07100
Zr75       Zr  0.99821247  0.00757908  0.50284757     2.17500
O76         O  0.99234258  0.96045585  0.53086031    -0.50300
O77         O  0.99565890  0.06580622  0.52216195    -0.73500
O78         O  0.06859934  0.03443324  0.51902383    -0.80300
O79         O  0.87450572  0.93059264  0.49428287    -0.82000
O80         O  0.12288448  0.06405752  0.49630548    -0.77600
O81         O  0.92702149  0.95725988  0.51774182    -0.89300
O82         O  0.99619011  0.11691094  0.50080654    -0.75200
O83         O  0.04715506  0.07666082  0.48593019    -0.84700
O84         O  0.95251061  0.02734736  0.48510428    -0.84400
O85         O  0.04150395  0.98875251  0.48241481    -0.71200
O86         O  0.95436782  0.94457076  0.48160152    -0.83300
Zr87       Zr  0.00192743  0.01700478  0.42546147     2.26400
Zr88       Zr  0.08924329  0.05794796  0.46491118     2.06300
Zr89       Zr  0.90996050  0.96553981  0.46342309     2.10000
Zr90       Zr  0.00139410  0.09576086  0.46796483     1.78800
O91         O  0.85669505  0.88597813  0.45581198    -0.92100
O92         O  0.06476450  0.17272045  0.47216047    -0.39900
O93         O  0.95811668  0.03479067  0.44596408    -0.76600
O94         O  0.04538818  0.08019207  0.44680221    -0.95200
O95         O  0.04668419  0.99609765  0.44321691    -0.88500
O96         O  0.95246660  0.94758920  0.44224916    -0.91400
C97         C  0.99445019  0.10197313  0.51811448     1.02400
C98         C  0.88695030  0.93262624  0.51201274     1.15300
C99         C  0.10909297  0.05247769  0.51384802     1.06100
O100        O  0.14866132  0.13692829  0.46915552    -0.93500
O101        O  0.12644413  0.09006184  0.43432405    -0.89300
O102        O  0.07438259  0.06564395  0.41068672    -0.82400
C103        C  0.11456768  0.08848017  0.41657395     1.12700
O104        O  0.99576741  0.87904742  0.48701210    -0.95500
Zr105      Zr  0.99757891  0.92778037  0.46046109     1.88900
O106        O  0.00084412  0.95639024  0.40674607    -0.72200
O107        O  0.13914330  0.02964186  0.46003650    -0.51400
O108        O  0.06087800  0.91793889  0.45807588    -0.96100
O109        O  0.93318709  0.85059148  0.45943470    -0.53300
O110        O  0.99895616  0.90383671  0.42769497    -0.72700
C111        C  0.00037189  0.91927442  0.41050525     0.99700
O112        O  0.01051096  0.05845881  0.39512614    -0.61500
O113        O  0.85309240  0.98429548  0.46895294    -0.56300
O114        O  0.93214217  0.99833888  0.41028846    -0.93000
O115        O  0.87780011  0.97003805  0.43303161    -0.91400
O116        O  0.93771465  0.10508073  0.46722773    -0.91800
O117        O  0.00712751  0.14811473  0.44229741    -0.90600
C118        C  0.89212415  0.98304841  0.41565023     1.18500
H119        H  0.93319640  0.03153063  0.49367540     0.34400
H120        H  0.06388820  0.10777177  0.43941812     0.45300
H121        H  0.93349261  0.92375502  0.43329236     0.38800
H122        H  0.05836275  0.97956864  0.49023015     0.35300
H123        H  0.07980916  0.17073945  0.48394283     0.27100
H124        H  0.16898431  0.05727956  0.46072319     0.33000
H125        H  0.07672238  0.92918800  0.47055789     0.38900
H126        H  0.91832188  0.08374945  0.45705105     0.33400
H127        H  0.82500452  0.95447985  0.46878978     0.32300
H128        H  0.82777186  0.88183777  0.45936698     0.34000
H129        H  0.91871720  0.84878734  0.44687525     0.32900
H130        H  0.00629677  0.13250304  0.43007582     0.36900
H131        H  0.99428739  0.03481201  0.38513186     0.29700
H132        H  0.00339442  0.98145859  0.54209099     0.33900
H133        H  0.99822939  0.85436381  0.48078316     0.36700
H134        H  0.85660570  0.99435187  0.48264483     0.29400
H135        H  0.99368051  0.07406950  0.39680984     0.42200
H136        H  0.14054479  0.14739562  0.48096200     0.32300
H137        H  0.08500955  0.17694545  0.46136276     0.39900
H138        H  0.91288777  0.85044174  0.46935950     0.31700
H139        H  0.13661382  0.01218997  0.47201336     0.31800
H140        H  0.01440852  0.95133362  0.52872593     0.32100
Zr141      Zr  0.99348771  0.01395453  0.92400886     2.17500
O142        O  0.02389474  0.05392941  0.89319523    -0.50300
O143        O  0.93253541  0.95394361  0.90555398    -0.73500
O144        O  0.04081927  0.99203443  0.90780105    -0.80300
O145        O  0.95004735  0.09373524  0.93428426    -0.82000
O146        O  0.06639974  0.96104068  0.92953860    -0.77600
O147        O  0.97606465  0.06864557  0.91023822    -0.89300
O148        O  0.88607943  0.89910657  0.92673153    -0.75200
O149        O  0.97623003  0.94502877  0.94054083    -0.84700
O150        O  0.92836829  0.99225412  0.94216668    -0.84400
O151        O  0.05663381  0.03390878  0.94402909    -0.71200
O152        O  0.01246015  0.07647779  0.94554972    -0.83300
Zr153      Zr  0.99135015  0.00288703  0.00148423     2.26400
Zr154      Zr  0.03811472  0.96465625  0.96116870     2.06300
Zr155      Zr  0.94748863  0.05370711  0.96419209     2.10000
Zr156      Zr  0.91187203  0.92410870  0.95908404     1.78800
O157        O  0.96913575  0.13027651  0.97526053    -0.92100
O158        O  0.90036331  0.84739905  0.95696491    -0.39900
O159        O  0.92966913  0.98476122  0.98106145    -0.76600
O160        O  0.97218737  0.94015316  0.97976992    -0.95200
O161        O  0.05676081  0.02571757  0.98339342    -0.88500
O162        O  0.00848335  0.07220079  0.98519985    -0.91400
C163        C  0.89767539  0.91547229  0.90956103     1.02400
C164        C  0.96169449  0.09390432  0.91658082     1.15300
C165        C  0.06403975  0.97430133  0.91231449     1.06100
O166        O  0.02609680  0.88897685  0.95470209    -0.93500
O167        O  0.04069731  0.92677823  0.99078936    -0.89300
O168        O  0.01251158  0.95009089  0.01456216    -0.82400
C169        C  0.02910267  0.92658229  0.00848962     1.12700
O170        O  0.12105850  0.14628231  0.94124775    -0.95500
Zr171      Zr  0.07296665  0.09386093  0.96652071     1.88900
O172        O  0.05085603  0.06449306  0.02015994    -0.72200
O173        O  0.11667920  0.99811989  0.96692960    -0.51400
O174        O  0.14685191  0.10545932  0.96690401    -0.96100
O175        O  0.08073508  0.16902429  0.96879662    -0.53300
O176        O  0.09981760  0.11763543  0.99909607    -0.72700
C177        C  0.08687797  0.10207812  0.01632942     0.99700
O178        O  0.96252090  0.97509077  0.03411966    -0.61500
O179        O  0.87213495  0.03464660  0.95781561    -0.56300
O180        O  0.93170605  0.00888857  0.01592667    -0.93000
O181        O  0.90707594  0.04099904  0.99415899    -0.91400
O182        O  0.83875588  0.91431568  0.95818460    -0.91800
O183        O  0.86477494  0.87320054  0.98489083    -0.90600
C184        C  0.90597195  0.02327394  0.01080761     1.18500
H185        H  0.90455734  0.98754728  0.93387686     0.34400
H186        H  0.96300667  0.91191432  0.98668473     0.45300
H187        H  0.01290601  0.09550954  0.99437814     0.38800
H188        H  0.08268419  0.04428398  0.93616767     0.35300
H189        H  0.86938602  0.82785244  0.95270648     0.27100
H190        H  0.12103146  0.97168525  0.96709869     0.33000
H191        H  0.14807078  0.09002935  0.97892602     0.38900
H192        H  0.84092683  0.93864243  0.96673063     0.33400
H193        H  0.87212326  0.06301991  0.96075595     0.32300
H194        H  0.97394840  0.14865357  0.96332421     0.34000
H195        H  0.07256512  0.17120817  0.98233063     0.32900
H196        H  0.87663431  0.89126260  0.99693148     0.36900
H197        H  0.94617275  0.94125107  0.03337253     0.29700
H198        H  0.01434991  0.02980458  0.88322960     0.33900
H199        H  0.14519766  0.17270387  0.94820035     0.36700
H200        H  0.86841716  0.03135719  0.94354289     0.29400
H201        H  0.98849717  0.98330410  0.04235847     0.42200
H202        H  0.99374518  0.86826408  0.95544286     0.32300
H203        H  0.91799642  0.84863163  0.94557169     0.39900
H204        H  0.05640152  0.16669137  0.96080055     0.31700
H205        H  0.13115033  0.01482267  0.95477264     0.31800
H206        H  0.05626591  0.06809218  0.89415571     0.32100
C207        C  0.97114164  0.29300027  0.62355360     0.04200
C208        C  0.93175393  0.29092215  0.62894757    -0.12000
C209        C  0.93273374  0.32248031  0.64233232     0.01700
C210        C  0.97305181  0.35531384  0.65053670    -0.10500
C211        C  0.01226914  0.35755905  0.64532516     0.04200
C212        C  0.01111799  0.32633938  0.63192729    -0.09900
H213        H  0.90085725  0.26616460  0.62223887     0.09800
H214        H  0.97400595  0.37976681  0.66082189     0.07300
H215        H  0.04156080  0.32799991  0.62803589     0.07100
C216        C  0.98335456  0.33227448  0.82134839     0.04200
C217        C  0.02419632  0.36519342  0.81317116    -0.12000
C218        C  0.02613637  0.39303785  0.79761285     0.01700
C219        C  0.98696954  0.38824512  0.79040225    -0.10500
C220        C  0.94601449  0.35660558  0.79864291     0.04200
C221        C  0.94450763  0.32868972  0.81410063    -0.09900
H222        H  0.05442385  0.36849922  0.81860760     0.09800
H223        H  0.98849666  0.40930715  0.77820895     0.07300
H224        H  0.91298345  0.30363153  0.82028688     0.07100
C225        C  0.65377312  0.34733242  0.69863570     0.46500
H226        H  0.65330655  0.34602486  0.68248826    -0.02500
C227        C  0.65469953  0.35016085  0.73644387     0.46600
H228        H  0.65519058  0.35121573  0.75257112    -0.02500
C229        C  0.61253532  0.30772056  0.70820166    -0.16200
C230        C  0.69247499  0.34574854  0.70771396    -0.16000
C231        C  0.65697163  0.39064813  0.70677973    -0.16300
C232        C  0.61264188  0.30939746  0.72816067    -0.16300
C233        C  0.69284607  0.34699059  0.72770753    -0.15900
C234        C  0.65782727  0.39234641  0.72677861    -0.16200
C235        C  0.31929782  0.68337270  0.72730789     0.46500
H236        H  0.32113090  0.68975474  0.74320220    -0.02500
C237        C  0.31623050  0.66929103  0.68995974     0.46600
H238        H  0.31471499  0.66253977  0.67411614    -0.02500
C239        C  0.31164206  0.71651772  0.71503141    -0.16200
C240        C  0.36149146  0.68813827  0.71903668    -0.16000
C241        C  0.28269930  0.63532152  0.72145966    -0.16300
C242        C  0.31012630  0.70941253  0.69524015    -0.16300
C243        C  0.36002383  0.68069143  0.69944088    -0.15900
C244        C  0.28032543  0.62847186  0.70168295    -0.16200
C245        C  0.31305442  0.02280753  0.60637080     0.04200
C246        C  0.34664642  0.05980460  0.61669666    -0.12000
C247        C  0.37359804  0.05320528  0.62956812     0.01700
C248        C  0.36611551  0.00909944  0.63241073    -0.10500
C249        C  0.33326367  0.97167247  0.62204960     0.04200
C250        C  0.30662475  0.97876409  0.60903048    -0.09900
H251        H  0.35226241  0.09390464  0.61447334     0.09800
H252        H  0.38523763  0.00376388  0.64327217     0.07300
H253        H  0.28057188  0.95004963  0.60120541     0.07100
C254        C  0.67693298  0.71054594  0.61246270     0.04200
C255        C  0.68319477  0.67446826  0.61819945    -0.12000
C256        C  0.65597320  0.64287537  0.63252009     0.01700
C257        C  0.62326435  0.64814599  0.64135877    -0.10500
C258        C  0.61651263  0.68354379  0.63579058     0.04200
C259        C  0.64297134  0.71423605  0.62116093    -0.09900
H260        H  0.70886395  0.67080490  0.61150218     0.09800
H261        H  0.60227768  0.62388085  0.65242762     0.07300
H262        H  0.63697082  0.74096763  0.61653103     0.07100
C263        C  0.67846479  0.72303419  0.80767033     0.04200
C264        C  0.68224245  0.68626640  0.80138895    -0.12000
C265        C  0.65478021  0.65715567  0.78676888     0.01700
C266        C  0.62281113  0.66496962  0.77863995    -0.10500
C267        C  0.61751746  0.70053562  0.78542266     0.04200
C268        C  0.64537069  0.72951569  0.80003373    -0.09900
H269        H  0.70634798  0.68012425  0.80819193     0.09800
H270        H  0.60153160  0.64303288  0.76716979     0.07300
H271        H  0.64210588  0.75769674  0.80503520     0.07100
C272        C  0.28231792  0.00326859  0.81089145     0.04200
C273        C  0.32089846  0.04615127  0.80782473    -0.12000
C274        C  0.35295213  0.05067676  0.79451276     0.01700
C275        C  0.34559269  0.01231965  0.78401553    -0.10500
C276        C  0.30776959  0.96941161  0.78703365     0.04200
C277        C  0.27618859  0.96496988  0.80054160    -0.09900
H278        H  0.32603024  0.07575800  0.81583422     0.09800
H279        H  0.36979727  0.01580627  0.77343320     0.07300
H280        H  0.24690924  0.93175575  0.80301915     0.07100
C281        C  0.51399773  0.70601938  0.78089198    -0.27200
C282        C  0.51163058  0.71027148  0.76068281     0.06500
C283        C  0.54564992  0.71411519  0.74879929     0.26100
C284        C  0.58065827  0.71207354  0.75701365    -0.11600
C285        C  0.58253789  0.70680507  0.77717141    -0.25600
C286        C  0.54933001  0.70452129  0.78913357     0.36900
C287        C  0.47224966  0.70730089  0.75184877     0.06500
F288        F  0.54388401  0.71756032  0.72918249    -0.19400
H289        H  0.60599531  0.71378879  0.74761407     0.16300
F290        F  0.54993199  0.69849389  0.80863516    -0.23100
H291        H  0.48798069  0.70294929  0.79022290     0.18100
C292        C  0.43041637  0.66806898  0.75476158     0.26100
C293        C  0.39401644  0.66294695  0.74457584    -0.11600
C294        C  0.39894313  0.69683959  0.73146044    -0.25600
C295        C  0.44008874  0.73724390  0.72939554     0.37000
C296        C  0.47663357  0.74222625  0.73942049    -0.27300
F297        F  0.42528074  0.63364590  0.76660519    -0.19400
H298        H  0.36231405  0.63171579  0.74630507     0.16300
F299        F  0.44489695  0.77152067  0.71756162    -0.23100
H300        H  0.50851778  0.77297515  0.73727463     0.18100
C301        C  0.46178654  0.72039704  0.66844310    -0.27200
C302        C  0.46826842  0.68332264  0.67037501     0.06500
C303        C  0.43825447  0.64485625  0.68137269     0.26100
C304        C  0.40235934  0.64372905  0.69039043    -0.11600
C305        C  0.39617350  0.68099906  0.68862500    -0.25600
C306        C  0.42618299  0.71948219  0.67766256     0.36900
C307        C  0.50714735  0.68547965  0.66145057     0.06500
F308        F  0.44366917  0.60841894  0.68328863    -0.19400
H309        H  0.37966387  0.61407718  0.69899204     0.16300
F310        F  0.42237103  0.75700797  0.67668767    -0.23100
H311        H  0.48505707  0.75054634  0.66025121     0.18100
C312        C  0.51221821  0.68731359  0.64116078     0.26100
C313        C  0.54858190  0.68798408  0.63289397    -0.11600
C314        C  0.58027086  0.68674777  0.64474339    -0.25600
C315        C  0.57558510  0.68587477  0.66508702     0.37000
C316        C  0.53920649  0.68515755  0.67332838    -0.27300
F317        F  0.48116897  0.68671216  0.62936861    -0.19400
H318        H  0.55133158  0.68805672  0.61720897     0.16300
F319        F  0.60626722  0.68592109  0.67696501    -0.23100
H320        H  0.53592137  0.68425455  0.68900806     0.18100
C321        C  0.29340009  0.85411613  0.77520061    -0.27200
C322        C  0.30413937  0.85970769  0.75532264     0.06500
C323        C  0.31234472  0.89977215  0.74570178     0.26100
C324        C  0.31151126  0.93437973  0.75599425    -0.11600
C325        C  0.30259923  0.92977061  0.77605293    -0.25600
C326        C  0.29276760  0.88891433  0.78556053     0.36900
C327        C  0.30640457  0.82352030  0.74468655     0.06500
F328        F  0.32090696  0.90531600  0.72632562    -0.19400
H329        H  0.31850760  0.96526977  0.74832359     0.16300
F330        F  0.28487381  0.88357177  0.80498997    -0.23100
H331        H  0.28679043  0.82328839  0.78281220     0.18100
C332        C  0.34428460  0.83339149  0.73402617     0.26100
C333        C  0.34558908  0.79861966  0.72395172    -0.11600
C334        C  0.30928907  0.75383246  0.72448147    -0.25600
C335        C  0.27159027  0.74403700  0.73509623     0.37000
C336        C  0.27022587  0.77862427  0.74514318    -0.27300
F337        F  0.38037356  0.87625317  0.73386204    -0.19400
H338        H  0.37508595  0.80636409  0.71602186     0.16300
F339        F  0.23517476  0.70154396  0.73481450    -0.23100
H340        H  0.24059764  0.77054994  0.75303842     0.18100
C341        C  0.35450238  0.87778426  0.63704961    -0.27200
C342        C  0.31179056  0.84169166  0.64157681     0.06500
C343        C  0.27569767  0.84660101  0.63677341     0.26100
C344        C  0.28265075  0.88812541  0.62931249    -0.11600
C345        C  0.32558151  0.92523595  0.62616085    -0.25600
C346        C  0.36135870  0.91875112  0.62914420     0.36900
C347        C  0.30602095  0.80196435  0.65326294     0.06500
F348        F  0.23369892  0.81180839  0.63983501    -0.19400
H349        H  0.25446529  0.89193720  0.62697197     0.16300
F350        F  0.40326423  0.95269783  0.62511261    -0.23100
H351        H  0.38305379  0.87541997  0.64059228     0.18100
C352        C  0.33218733  0.78256272  0.64992112     0.26100
C353        C  0.33204675  0.75128843  0.66324853    -0.11600
C354        C  0.30560994  0.73827663  0.68004302    -0.25600
C355        C  0.27562901  0.75337551  0.68203473     0.37000
C356        C  0.27687420  0.78588508  0.66917840    -0.27300
F357        F  0.35834851  0.79422259  0.63393185    -0.19400
H358        H  0.35345186  0.73807627  0.66056452     0.16300
F359        F  0.24430165  0.73606260  0.69607260    -0.23100
H360        H  0.25579912  0.79945330  0.67213023     0.18100
C361        C  0.69910770  0.57271957  0.65582793    -0.27200
C362        C  0.66031049  0.52942463  0.65690115     0.06500
C363        C  0.62212727  0.52277442  0.64757430     0.26100
C364        C  0.62208474  0.55941712  0.63846714    -0.11600
C365        C  0.65997607  0.60337194  0.63847361    -0.25600
C366        C  0.69904955  0.60952274  0.64665924     0.36900
C367        C  0.65872904  0.49256599  0.66908649     0.06500
F368        F  0.58446636  0.48110609  0.64775255    -0.19400
H369        H  0.59176557  0.55393488  0.63207045     0.16300
F370        F  0.73609506  0.65164280  0.64709222    -0.23100
H371        H  0.72882641  0.57863240  0.66300907     0.18100
C372        C  0.69018998  0.47947977  0.66693766     0.26100
C373        C  0.68913790  0.44598163  0.67916556    -0.11600
C374        C  0.65703556  0.42541931  0.69377641    -0.25600
C375        C  0.62487886  0.43754122  0.69563130     0.37000
C376        C  0.62595362  0.47103771  0.68345443    -0.27300
F377        F  0.72146952  0.49858544  0.65284882    -0.19400
H378        H  0.71375547  0.43644747  0.67741506     0.16300
F379        F  0.59219588  0.41662057  0.70904967    -0.23100
H380        H  0.60143870  0.48063357  0.68540994     0.18100
C381        C  0.63759655  0.45934509  0.76469495    -0.27200
C382        C  0.66655969  0.50461786  0.75854625     0.06500
C383        C  0.69545770  0.51272434  0.74294568     0.26100
C384        C  0.69364985  0.47610603  0.73318703    -0.11600
C385        C  0.66225875  0.43090081  0.73837639    -0.25600
C386        C  0.63495841  0.42272053  0.75457241     0.36900
C387        C  0.66381912  0.54268295  0.76726687     0.06500
F388        F  0.72372928  0.55581144  0.73636200    -0.19400
H389        H  0.71602007  0.48311666  0.72116826     0.16300
F390        F  0.60407746  0.37946107  0.76001598    -0.23100
H391        H  0.61583994  0.45222943  0.77697795     0.18100
C392        C  0.62257803  0.53861124  0.77008317     0.26100
C393        C  0.62010404  0.57563240  0.77680842    -0.11600
C394        C  0.65851230  0.61787288  0.78039935    -0.25600
C395        C  0.69984989  0.62191898  0.77777265     0.37000
C396        C  0.70229315  0.58438009  0.77158878    -0.27300
F397        F  0.58453868  0.49952752  0.76550730    -0.19400
H398        H  0.58788976  0.57130902  0.77899210     0.16300
F399        F  0.73793662  0.66251315  0.78033497    -0.23100
H400        H  0.73441530  0.58825078  0.76977678     0.18100
C401        C  0.48401105  0.13272203  0.65293530    -0.27200
C402        C  0.47523392  0.16273945  0.66301578     0.06500
C403        C  0.43332717  0.15761331  0.66156942     0.26100
C404        C  0.40054701  0.12243047  0.65037737    -0.11600
C405        C  0.40912154  0.09194401  0.64048930    -0.25600
C406        C  0.45138779  0.09771955  0.64169165     0.36900
C407        C  0.51022150  0.19969650  0.67474698     0.06500
F408        F  0.42377891  0.18579865  0.67142453    -0.19400
H409        H  0.36813042  0.11831932  0.64979543     0.16300
F410        F  0.46138126  0.07000644  0.63172506    -0.23100
H411        H  0.51639801  0.13676104  0.65361804     0.18100
C412        C  0.53203466  0.18978900  0.68931556     0.26100
C413        C  0.56546684  0.22513292  0.70013870    -0.11600
C414        C  0.57758236  0.27064954  0.69653299    -0.25600
C415        C  0.55617769  0.28067537  0.68187295     0.37000
C416        C  0.52251725  0.24531939  0.67113579    -0.27300
F417        F  0.52044879  0.14593393  0.69329956    -0.19400
H418        H  0.58196285  0.21706831  0.71135544     0.16300
F419        F  0.56685524  0.32445195  0.67839413    -0.23100
H420        H  0.50622037  0.25352411  0.65987830     0.18100
C421        C  0.49770619  0.23124984  0.74853933    -0.27200
C422        C  0.50637669  0.21209501  0.76485609     0.06500
C423        C  0.55061036  0.22712217  0.76948487     0.26100
C424        C  0.58482678  0.25878386  0.75750271    -0.11600
C425        C  0.57582427  0.27670346  0.74092873    -0.25600
C426        C  0.53200043  0.26402925  0.73699694     0.36900
C427        C  0.46909385  0.17414296  0.77585589     0.06500
F428        F  0.56091690  0.21132059  0.78557392    -0.19400
H429        H  0.61844749  0.26883402  0.76103823     0.16300
F430        F  0.52219356  0.28366092  0.72216094    -0.23100
H431        H  0.46419587  0.22019611  0.74438011     0.18100
C432        C  0.42985783  0.17407392  0.77956177     0.26100
C433        C  0.39252341  0.13461014  0.78675625    -0.11600
C434        C  0.39402257  0.09506438  0.79080902    -0.25600
C435        C  0.43440690  0.09678413  0.78898996     0.37000
C436        C  0.47110113  0.13543980  0.78119260    -0.27300
F437        F  0.42718402  0.21167633  0.77578318    -0.19400
H438        H  0.36193309  0.13429163  0.78827477     0.16300
F439        F  0.43791087  0.06023068  0.79403469    -0.23100
H440        H  0.50043803  0.13399157  0.77846861     0.18100
C441        C  0.82962599  0.30810412  0.77926435    -0.27200
C442        C  0.83062300  0.34811098  0.77327106     0.06500
C443        C  0.86894456  0.39078886  0.77670900     0.26100
C444        C  0.90541106  0.39307976  0.78562666    -0.11600
C445        C  0.90520639  0.35304938  0.79082159    -0.25600
C446        C  0.86669851  0.31034314  0.78760930     0.36900
C447        C  0.79280418  0.34520587  0.76256346     0.06500
F448        F  0.87215558  0.43034566  0.77062238    -0.19400
H449        H  0.93436146  0.42643413  0.78809870     0.16300
F450        F  0.86545529  0.27065468  0.79154455    -0.23100
H451        H  0.80036061  0.27484110  0.77708870     0.18100
C452        C  0.77200063  0.31333949  0.74748290     0.26100
C453        C  0.73836089  0.31286619  0.73671548    -0.11600
C454        C  0.72609327  0.34526954  0.74017390    -0.25600
C455        C  0.74619357  0.37658192  0.75540176     0.37000
C456        C  0.77866002  0.37594526  0.76667978    -0.27300
F457        F  0.78546944  0.28403902  0.74248142    -0.19400
H458        H  0.72264096  0.28783640  0.72529921     0.16300
F459        F  0.73597143  0.40918751  0.75883833    -0.23100
H460        H  0.79341216  0.40024194  0.77841631     0.18100
C461        C  0.20838572  0.52013281  0.74585083    -0.27200
C462        C  0.18583306  0.53117344  0.75943484     0.06500
C463        C  0.19962017  0.57744813  0.76231357     0.26100
C464        C  0.23320754  0.61152250  0.75077890    -0.11600
C465        C  0.25282311  0.60002809  0.73591368    -0.25600
C466        C  0.24202803  0.55423655  0.73440629     0.36900
C467        C  0.14634284  0.49421122  0.76955399     0.06500
F468        F  0.17890692  0.58949839  0.77545583    -0.19400
H469        H  0.24258306  0.64664892  0.75304418     0.16300
F470        F  0.26389699  0.54240821  0.72182810    -0.23100
H471        H  0.19936236  0.48485858  0.74388343     0.18100
C472        C  0.11125473  0.45995396  0.75871712     0.26100
C473        C  0.07285944  0.42659456  0.76800390    -0.11600
C474        C  0.06864514  0.42652168  0.78830018    -0.25600
C475        C  0.10407246  0.46014908  0.79924164     0.37000
C476        C  0.14252922  0.49381646  0.78989625    -0.27300
F477        F  0.11336915  0.45993376  0.73904253    -0.19400
H478        H  0.04599721  0.40104383  0.75928392     0.16300
F479        F  0.10074519  0.46165488  0.81884006    -0.23100
H480        H  0.16920205  0.51988113  0.79851598     0.18100
C481        C  0.82171448  0.28831539  0.66422985    -0.27200
C482        C  0.82290101  0.33018153  0.66357401     0.06500
C483        C  0.85814022  0.36774576  0.65397876     0.26100
C484        C  0.89261165  0.36413266  0.64621348    -0.11600
C485        C  0.89251669  0.32299038  0.64769901    -0.25600
C486        C  0.85612625  0.28459650  0.65626198     0.36900
C487        C  0.78907512  0.33540948  0.67398296     0.06500
F488        F  0.85955572  0.40817417  0.65236625    -0.19400
H489        H  0.92016263  0.39395889  0.63945856     0.16300
F490        F  0.85520493  0.24445718  0.65802981    -0.23100
H491        H  0.79505418  0.25901151  0.67166214     0.18100
C492        C  0.74381450  0.30399370  0.67138355     0.26100
C493        C  0.71254840  0.30832177  0.68205300    -0.11600
C494        C  0.72592661  0.34369534  0.69556510    -0.25600
C495        C  0.77101689  0.37607897  0.69766801     0.37000
C496        C  0.80225139  0.37166893  0.68708905    -0.27300
F497        F  0.72987363  0.26935602  0.65844913    -0.19400
H498        H  0.67784676  0.28339454  0.68011651     0.16300
F499        F  0.78482058  0.41182274  0.71000636    -0.23100
H500        H  0.83690116  0.39621169  0.68939516     0.18100
C501        C  0.16402075  0.53816926  0.68836274    -0.27200
C502        C  0.17094502  0.50831722  0.67709262     0.06500
C503        C  0.21430367  0.51952441  0.67294845     0.26100
C504        C  0.25011787  0.55968292  0.68038087    -0.11600
C505        C  0.24292721  0.58860170  0.69215784    -0.25600
C506        C  0.19964662  0.57816797  0.69571908     0.36900
C507        C  0.13248487  0.46673415  0.66913506     0.06500
F508        F  0.22188530  0.49096950  0.66225472    -0.19400
H509        H  0.28336910  0.56742563  0.67755249     0.16300
F510        F  0.19191796  0.60676305  0.70632445    -0.23100
H511        H  0.13087833  0.53064886  0.69129634     0.18100
C512        C  0.09833003  0.43557093  0.68145809     0.26100
C513        C  0.05964248  0.39946121  0.67364945    -0.11600
C514        C  0.05458672  0.39368946  0.65345620    -0.25600
C515        C  0.08932337  0.42392463  0.64113731     0.37000
C516        C  0.12798606  0.46014888  0.64896730    -0.27300
F517        F  0.10229122  0.44033261  0.70102807    -0.19400
H518        H  0.03336057  0.37620867  0.68334987     0.16300
F519        F  0.08490075  0.41992937  0.62152684    -0.23100
H520        H  0.15371461  0.48420154  0.63925157     0.18100
C521        C  0.83878012  0.88102395  0.86101113    -0.27200
C522        C  0.80389789  0.83670280  0.86534753     0.06500
C523        C  0.80167658  0.81756724  0.88370507     0.26100
C524        C  0.83318523  0.84302780  0.89769963    -0.11600
C525        C  0.86753898  0.88808519  0.89369919    -0.25600
C526        C  0.87045513  0.90668050  0.87503278     0.36900
C527        C  0.77120898  0.80976629  0.85033782     0.06500
F528        F  0.76952926  0.77395597  0.88799827    -0.19400
H529        H  0.83034696  0.82735481  0.91179087     0.16300
F530        F  0.90301836  0.94985343  0.87041413    -0.23100
H531        H  0.84110570  0.89596327  0.84678888     0.18100
C532        C  0.72574188  0.78955001  0.85386293     0.26100
C533        C  0.69538393  0.76241914  0.83964508    -0.11600
C534        C  0.71013384  0.75487232  0.82195481    -0.25600
C535        C  0.75556220  0.77596127  0.81831611     0.37000
C536        C  0.78579576  0.80332831  0.83240042    -0.27300
F537        F  0.71080759  0.79600825  0.87100055    -0.19400
H538        H  0.66042735  0.74627950  0.84261528     0.16300
F539        F  0.77063446  0.76982857  0.80115091    -0.23100
H540        H  0.82069858  0.81867365  0.82949234     0.18100
C541        C  0.15171698  0.96109626  0.88645657    -0.27200
C542        C  0.15219810  0.97916409  0.86800308     0.06500
C543        C  0.12120955  0.99197996  0.86377093     0.26100
C544        C  0.09138615  0.98820993  0.87797464    -0.11600
C545        C  0.09185322  0.97182474  0.89676935    -0.25600
C546        C  0.12195512  0.95738542  0.90073734     0.36900
C547        C  0.18562676  0.98551719  0.85338613     0.06500
F548        F  0.12111680  0.01026206  0.84619190    -0.19400
H549        H  0.06884632  0.99967146  0.87435354     0.16300
F550        F  0.12373282  0.94091378  0.91851875    -0.23100
H551        H  0.17485688  0.95028722  0.88989120     0.18100
C552        C  0.23071379  0.00890296  0.85813571     0.26100
C553        C  0.26200365  0.01514751  0.84417005    -0.11600
C554        C  0.24893614  0.99798303  0.82529556    -0.25600
C555        C  0.20387277  0.97486877  0.82050941     0.37000
C556        C  0.17260564  0.96874511  0.83445587    -0.27300
F557        F  0.24459593  0.02644642  0.87617060    -0.19400
H558        H  0.29650207  0.03288405  0.84818013     0.16300
F559        F  0.19012285  0.95888468  0.80226198    -0.23100
H560        H  0.13806755  0.95056113  0.83050369     0.18100
C561        C  0.94835124  0.25318672  0.86562982    -0.27200
C562        C  0.97349335  0.23239584  0.86326420     0.06500
C563        C  0.00313609  0.24621308  0.84753129     0.26100
C564        C  0.00659177  0.27914486  0.83427031    -0.11600
C565        C  0.98096885  0.29945856  0.83641329    -0.25600
C566        C  0.95211128  0.28650859  0.85245643     0.36900
C567        C  0.96824423  0.19595881  0.87699653     0.06500
F568        F  0.02915109  0.22819828  0.84502882    -0.19400
H569        H  0.02881039  0.28806838  0.82202696     0.16300
F570        F  0.92782171  0.30628642  0.85557567    -0.23100
H571        H  0.92516257  0.24309024  0.87755665     0.18100
C572        C  0.96830700  0.20165061  0.89724773     0.26100
C573        C  0.96427231  0.16747031  0.90995270    -0.11600
C574        C  0.96074466  0.12715824  0.90281588    -0.25600
C575        C  0.95967690  0.12102511  0.88253418     0.37000
C576        C  0.96317999  0.15499857  0.86984079    -0.27300
F577        F  0.97422258  0.24108851  0.90481258    -0.19400
H578        H  0.96564879  0.17343275  0.92545420     0.16300
F579        F  0.95512226  0.08220366  0.87490780    -0.23100
H580        H  0.96194641  0.14925618  0.85432448     0.18100
C581        C  0.75001429  0.82295701  0.58574241    -0.27200
C582        C  0.75958376  0.80805026  0.56848816     0.06500
C583        C  0.74159057  0.76084156  0.56569100     0.26100
C584        C  0.71478837  0.72934089  0.57999378    -0.11600
C585        C  0.70535108  0.74424272  0.59732068    -0.25600
C586        C  0.72313008  0.79152586  0.60000567     0.36900
C587        C  0.79055977  0.84202379  0.55410482     0.06500
F588        F  0.75122412  0.74526305  0.54945190    -0.19400
H589        H  0.70131899  0.69318684  0.57751149     0.16300
F590        F  0.71576790  0.80757858  0.61669768    -0.23100
H591        H  0.76373292  0.85915805  0.58823701     0.18100
C592        C  0.77967062  0.83895977  0.53429017     0.26100
C593        C  0.81064026  0.86936758  0.52079245    -0.11600
C594        C  0.85309614  0.90350012  0.52675148    -0.25600
C595        C  0.86313883  0.90772810  0.54678619     0.37000
C596        C  0.83211852  0.87728827  0.56022419    -0.27300
F597        F  0.73905991  0.80660237  0.52797370    -0.19400
H598        H  0.80156651  0.86543043  0.50557697     0.16300
F599        F  0.90306103  0.94078087  0.55349658    -0.23100
H600        H  0.84106216  0.88049142  0.57545000     0.18100
C601        C  0.94598990  0.18705880  0.59489502    -0.27200
C602        C  0.97813620  0.20647529  0.58018408     0.06500
C603        C  0.00719933  0.25414222  0.57977815     0.26100
C604        C  0.00392743  0.28173635  0.59368573    -0.11600
C605        C  0.97192091  0.26258934  0.60843925    -0.25600
C606        C  0.94278130  0.21486420  0.60893149     0.36900
C607        C  0.98045012  0.17784479  0.56466611     0.06500
F608        F  0.03930045  0.27406414  0.56604704    -0.19400
H609        H  0.02663312  0.31837964  0.59292766     0.16300
F610        F  0.91208377  0.19505644  0.62322205    -0.23100
H611        H  0.92307102  0.15044890  0.59536767     0.18100
C612        C  0.98361377  0.13922064  0.56887958     0.26100
C613        C  0.98835225  0.11464227  0.55376729    -0.11600
C614        C  0.98987869  0.12810753  0.53423167    -0.25600
C615        C  0.98594658  0.16650825  0.53019972     0.37000
C616        C  0.98107778  0.19064275  0.54523261    -0.27300
F617        F  0.98339865  0.12605927  0.58756461    -0.19400
H618        H  0.99107546  0.08525077  0.55739147     0.16300
F619        F  0.98670880  0.18115856  0.51172429    -0.23100
H620        H  0.97792863  0.21980633  0.54164663     0.18100
C621        C  0.15865543  0.04011549  0.56086863    -0.27200
C622        C  0.20153268  0.05362191  0.55483579     0.06500
C623        C  0.21515279  0.07138127  0.53598077     0.26100
C624        C  0.18559069  0.07327657  0.52310708    -0.11600
C625        C  0.14176515  0.05745147  0.52872742    -0.25600
C626        C  0.12903350  0.04213849  0.54805097     0.36900
C627        C  0.23098377  0.04689633  0.56793533     0.06500
F628        F  0.25693793  0.08641178  0.52992508    -0.19400
H629        H  0.19679733  0.08577994  0.50847808     0.16300
F630        F  0.08760760  0.02749936  0.55448072    -0.23100
H631        H  0.14752440  0.02635292  0.57535988     0.18100
C632        C  0.23859276  0.06332882  0.58708367     0.26100
C633        C  0.26522474  0.05528877  0.59948520    -0.11600
C634        C  0.28450865  0.03051729  0.59306814    -0.25600
C635        C  0.27707531  0.01429311  0.57387474     0.37000
C636        C  0.25054743  0.02246844  0.56145463    -0.27300
F637        F  0.22082682  0.08775212  0.59368518    -0.19400
H638        H  0.27057735  0.06816790  0.61420620     0.16300
F639        F  0.29628589  0.99151349  0.56698969    -0.23100
H640        H  0.24484182  0.00923914  0.54678772     0.18100
C641        C  0.25941098  0.25503765  0.36255804    -0.27200
C642        C  0.24654250  0.20878298  0.36103232     0.06500
C643        C  0.26286867  0.19499189  0.34558484     0.26100
C644        C  0.29056469  0.22690307  0.33162357    -0.11600
C645        C  0.30289230  0.27320633  0.33293707    -0.25600
C646        C  0.28761221  0.28706314  0.34883381     0.36900
C647        C  0.21485163  0.17527886  0.37527506     0.06500
F648        F  0.25239119  0.15082018  0.34411146    -0.19400
H649        H  0.30185972  0.21519339  0.31961017     0.16300
F650        F  0.30054623  0.33168652  0.35141192    -0.23100
H651        H  0.24716135  0.26637174  0.37434603     0.18100
C652        C  0.22181750  0.18340878  0.39532443     0.26100
C653        C  0.18961691  0.15419043  0.40861096    -0.11600
C654        C  0.14961414  0.11649707  0.40220638    -0.25600
C655        C  0.14329290  0.10754111  0.38212575     0.37000
C656        C  0.17576869  0.13666090  0.36883488    -0.27300
F657        F  0.25960235  0.21995786  0.40205844    -0.19400
H658        H  0.19554770  0.16199139  0.42394920     0.16300
F659        F  0.10570622  0.07095584  0.37528658    -0.23100
H660        H  0.16971322  0.12993547  0.35342795     0.18100
C661        C  0.73088178  0.97184240  0.36110330    -0.27200
C662        C  0.77703147  0.99572281  0.35918079     0.06500
C663        C  0.79653300  0.02552132  0.34315630     0.26100
C664        C  0.77032667  0.02996427  0.32914462    -0.11600
C665        C  0.72423815  0.00523278  0.33085858    -0.25600
C666        C  0.70474138  0.97686893  0.34723034     0.36900
C667        C  0.80464960  0.98935860  0.37374259     0.06500
F668        F  0.84100166  0.05071843  0.34106826    -0.19400
H669        H  0.78609150  0.05205920  0.31668235     0.16300
F670        F  0.66039425  0.95415881  0.34985945    -0.23100
H671        H  0.71484763  0.94854055  0.37318493     0.18100
C672        C  0.79689617  0.98904062  0.39383698     0.26100
C673        C  0.82451827  0.98524296  0.40728469    -0.11600
C674        C  0.86079086  0.98228096  0.40108292    -0.25600
C675        C  0.86775915  0.98120142  0.38100130     0.37000
C676        C  0.83968823  0.98422486  0.36755420    -0.27300
F677        F  0.76387948  0.99446551  0.40057356    -0.19400
H678        H  0.81841592  0.98639385  0.42263774     0.16300
F679        F  0.90156460  0.97707712  0.37430084    -0.23100
H680        H  0.84556208  0.98277535  0.35220381     0.18100
C681        C  0.03938082  0.79559467  0.35094195    -0.27200
C682        C  0.01161191  0.81317159  0.34832674     0.06500
C683        C  0.98562965  0.80206993  0.33152088     0.26100
C684        C  0.98637732  0.77239727  0.31787702    -0.11600
C685        C  0.01300652  0.75344337  0.32080278    -0.25600
C686        C  0.04002865  0.76579641  0.33739078     0.36900
C687        C  0.00775291  0.84030609  0.36389264     0.06500
F688        F  0.95811173  0.81822523  0.32874144    -0.19400
H689        H  0.96568453  0.76373489  0.30511108     0.16300
F690        F  0.06539150  0.74740195  0.34106209    -0.23100
H691        H  0.05976831  0.80408100  0.36380875     0.18100
C692        C  0.99715865  0.82241646  0.38283930     0.26100
C693        C  0.99425012  0.84810799  0.39773314    -0.11600
C694        C  0.00187177  0.89224365  0.39409431    -0.25600
C695        C  0.01197470  0.90995023  0.37495798     0.37000
C696        C  0.01475058  0.88397086  0.36000526    -0.27300
F697        F  0.98901586  0.77971370  0.38689774    -0.19400
H698        H  0.98602554  0.83323030  0.41218992     0.16300
F699        F  0.02017900  0.95257403  0.37069765    -0.23100
H700        H  0.02314577  0.89823481  0.34544260     0.18100
C701        C  0.75830425  0.96907616  0.08084376    -0.27200
C702        C  0.77198263  0.00057409  0.06535923     0.06500
C703        C  0.75398512  0.02880378  0.06359053     0.26100
C704        C  0.72370290  0.02609695  0.07728232    -0.11600
C705        C  0.71106499  0.99566291  0.09313731    -0.25600
C706        C  0.72844709  0.96681338  0.09471358     0.36900
C707        C  0.80584408  0.00487952  0.05143261     0.06500
F708        F  0.76687740  0.06028833  0.04905058    -0.19400
H709        H  0.71045615  0.04830588  0.07558441     0.16300
F710        F  0.71814788  0.93782473  0.11007299    -0.23100
H711        H  0.77119992  0.94651751  0.08235005     0.18100
C712        C  0.84503201  0.00815939  0.05801791     0.26100
C713        C  0.87745935  0.01414579  0.04475577    -0.11600
C714        C  0.87169254  0.01746693  0.02473427    -0.25600
C715        C  0.83218744  0.01352446  0.01814585     0.37000
C716        C  0.79961892  0.00700882  0.03138651    -0.27300
F717        F  0.85265627  0.00701280  0.07729865    -0.19400
H718        H  0.90745653  0.01691791  0.05019864     0.16300
F719        F  0.82437682  0.01474446  0.99888522    -0.23100
H720        H  0.76928823  0.00341051  0.02593089     0.18100
C721        C  0.03892576  0.82949845  0.03072047    -0.27200
C722        C  0.03480771  0.83536610  0.05063387     0.06500
C723        C  0.03060220  0.87227785  0.05657394     0.26100
C724        C  0.02979658  0.90217423  0.04282421    -0.11600
C725        C  0.03330144  0.89616511  0.02282171    -0.25600
C726        C  0.03828861  0.85952174  0.01690737     0.36900
C727        C  0.03385432  0.80246602  0.06515094     0.06500
F728        F  0.02560413  0.87848931  0.07566013    -0.19400
H729        H  0.02584708  0.92984310  0.04790036     0.16300
F730        F  0.04116578  0.85164869  0.99780327    -0.23100
H731        H  0.04244761  0.80140909  0.02584923     0.18100
C732        C  0.00379553  0.75520393  0.06335861     0.26100
C733        C  0.00152624  0.72477886  0.07769335    -0.11600
C734        C  0.02927624  0.74077404  0.09401801    -0.25600
C735        C  0.05993189  0.78797885  0.09561535     0.37000
C736        C  0.06206559  0.81841618  0.08131118    -0.27300
F737        F  0.97549680  0.73859611  0.04812048    -0.19400
H738        H  0.97780412  0.68858081  0.07610046     0.16300
F739        F  0.08661376  0.80494539  0.11136733    -0.23100
H740        H  0.08558071  0.85465619  0.08293174     0.18100
C741        C  0.13114644  0.63652859  0.15061513    -0.27200
C742        C  0.16408328  0.67542594  0.16018675     0.06500
C743        C  0.16386081  0.71650542  0.15906564     0.26100
C744        C  0.13024839  0.71802152  0.14900311    -0.11600
C745        C  0.09631731  0.67854059  0.14012551    -0.25600
C746        C  0.09746486  0.63795215  0.14069255     0.36900
C747        C  0.19733050  0.67226311  0.17199567     0.06500
F748        F  0.19470135  0.75434667  0.16859433    -0.19400
H749        H  0.12955859  0.74940690  0.14889082     0.16300
F750        F  0.06555443  0.59949197  0.13189241    -0.23100
H751        H  0.13115394  0.60478072  0.15112772     0.18100
C752        C  0.18411870  0.63987591  0.18714650     0.26100
C753        C  0.21565301  0.63774669  0.19858098    -0.11600
C754        C  0.26074219  0.66776161  0.19505362    -0.25600
C755        C  0.27396140  0.69943257  0.17964012     0.37000
C756        C  0.24241749  0.70183772  0.16830147    -0.27300
F757        F  0.14073155  0.61118209  0.19120386    -0.19400
H758        H  0.20493507  0.61290827  0.21031602     0.16300
F759        F  0.31733835  0.72902052  0.17594727    -0.23100
H760        H  0.25313347  0.72678121  0.15660981     0.18100
C761        C  0.21307566  0.65776111  0.26577660    -0.27200
C762        C  0.20168066  0.68938526  0.25910041     0.06500
C763        C  0.22448219  0.71756223  0.24303013     0.26100
C764        C  0.25640209  0.71256944  0.23348545    -0.11600
C765        C  0.26484433  0.67827814  0.23919838    -0.25600
C766        C  0.24373627  0.65156740  0.25571299     0.36900
C767        C  0.16388952  0.69018241  0.26791954     0.06500
F768        F  0.21432802  0.74808941  0.23576775    -0.19400
H769        H  0.27344424  0.73447899  0.22113054     0.16300
F770        F  0.25096847  0.61789002  0.26153422    -0.23100
H771        H  0.19715058  0.63665840  0.27846344     0.18100
C772        C  0.12468945  0.64896080  0.27242989     0.26100
C773        C  0.08837074  0.64963013  0.27962848    -0.11600
C774        C  0.08924450  0.69104505  0.28157396    -0.25600
C775        C  0.12835549  0.73235073  0.27707740     0.37000
C776        C  0.16557508  0.73183175  0.27080366    -0.27300
F777        F  0.12042154  0.60772495  0.26896564    -0.19400
H778        H  0.05899236  0.61732234  0.28324290     0.16300
F779        F  0.13014110  0.77303282  0.27777022    -0.23100
H780        H  0.19544651  0.76411873  0.26775570     0.18100
C781        C  0.45309569  0.81630840  0.18336038    -0.27200
C782        C  0.47312058  0.80314065  0.16933222     0.06500
C783        C  0.45944028  0.75663688  0.16753049     0.26100
C784        C  0.42652084  0.72400804  0.17975073    -0.11600
C785        C  0.40756818  0.73747762  0.19413271    -0.25600
C786        C  0.42050195  0.78380335  0.19564572     0.36900
C787        C  0.50907774  0.83852338  0.15714187     0.06500
F788        F  0.47762658  0.74282724  0.15386025    -0.19400
H789        H  0.41637120  0.68828607  0.17826437     0.16300
F790        F  0.40117746  0.79749906  0.20880107    -0.23100
H791        H  0.46321706  0.85198939  0.18498073     0.18100
C792        C  0.50314883  0.87063671  0.14682991     0.26100
C793        C  0.53872859  0.90735730  0.13737217    -0.11600
C794        C  0.58067899  0.91252687  0.13790476    -0.25600
C795        C  0.58626840  0.87925981  0.14737125     0.37000
C796        C  0.55061355  0.84252263  0.15696300    -0.27300
F797        F  0.46309369  0.86686979  0.14617298    -0.19400
H798        H  0.53384240  0.93256229  0.12999143     0.16300
F799        F  0.62663428  0.88384184  0.14837368    -0.23100
H800        H  0.55586292  0.81830090  0.16497873     0.18100
C801        C  0.49163544  0.78172900  0.24498048    -0.27200
C802        C  0.48615017  0.80838671  0.25884960     0.06500
C803        C  0.44346928  0.79943664  0.26293688     0.26100
C804        C  0.40718452  0.76506952  0.25287978    -0.11600
C805        C  0.41307469  0.73971366  0.23850928    -0.25600
C806        C  0.45547072  0.74750164  0.23496435     0.36900
C807        C  0.52552767  0.84753472  0.26773271     0.06500
F808        F  0.43711395  0.82536840  0.27588278    -0.19400
H809        H  0.37464269  0.75929546  0.25581418     0.16300
F810        F  0.46191635  0.72187467  0.22189057    -0.23100
H811        H  0.52417501  0.78779562  0.24178050     0.18100
C812        C  0.52993673  0.85337824  0.28800221     0.26100
C813        C  0.56698499  0.89172319  0.29585268    -0.11600
C814        C  0.59993945  0.92473996  0.28361051    -0.25600
C815        C  0.59616266  0.91789324  0.26338915     0.37000
C816        C  0.55926783  0.87971272  0.25558575    -0.27300
F817        F  0.49866243  0.82196521  0.30017143    -0.19400
H818        H  0.56939872  0.89628127  0.31146851     0.16300
F819        F  0.62821887  0.94811887  0.25115837    -0.23100
H820        H  0.55664106  0.87563879  0.23994201     0.18100
C821        C  0.29538903  0.43766518  0.27944795    -0.27200
C822        C  0.33215517  0.48077979  0.27480706     0.06500
C823        C  0.37456870  0.48841296  0.27846517     0.26100
C824        C  0.37983086  0.45356852  0.28615870    -0.11600
C825        C  0.34323378  0.40974196  0.28990126    -0.25600
C826        C  0.30069999  0.40227027  0.28660986     0.36900
C827        C  0.32652845  0.51657376  0.26500614     0.06500
F828        F  0.41125614  0.52884502  0.27374117    -0.19400
H829        H  0.41295577  0.46083566  0.28887404     0.16300
F830        F  0.26421633  0.36034321  0.28936747    -0.23100
H831        H  0.26232660  0.43094453  0.27713482     0.18100
C832        C  0.29683750  0.50532875  0.24943628     0.26100
C833        C  0.29552666  0.53973725  0.23889539    -0.11600
C834        C  0.32509501  0.58612726  0.24294778    -0.25600
C835        C  0.35306249  0.59739423  0.25914138     0.37000
C836        C  0.35319383  0.56287535  0.27018821    -0.27300
F837        F  0.27095784  0.46137191  0.24353508    -0.19400
H838        H  0.27246125  0.53002858  0.22697410     0.16300
F839        F  0.38215894  0.64168882  0.26369162    -0.23100
H840        H  0.37538970  0.57256108  0.28245171     0.18100
C841        C  0.88080546  0.53258891  0.27329956    -0.27200
C842        C  0.85241907  0.54110972  0.26232613     0.06500
C843        C  0.85944693  0.58556061  0.26145752     0.26100
C844        C  0.89628830  0.62158377  0.27053092    -0.11600
C845        C  0.92617388  0.61337458  0.28048920    -0.25600
C846        C  0.91739234  0.56838149  0.28237622     0.36900
C847        C  0.81771328  0.50389423  0.25074186     0.06500
F848        F  0.83232178  0.59449496  0.25087546    -0.19400
H849        H  0.90272668  0.65613236  0.26895657     0.16300
F850        F  0.94495544  0.55933457  0.29255089    -0.23100
H851        H  0.87525461  0.49828716  0.27433313     0.18100
C852        C  0.82914140  0.48226792  0.23658782     0.26100
C853        C  0.79636535  0.44575821  0.22608034    -0.11600
C854        C  0.75191034  0.43054686  0.22952445    -0.25600
C855        C  0.74039650  0.45222958  0.24359232     0.37000
C856        C  0.77325827  0.48899457  0.25406852    -0.35100
F857        F  0.87205527  0.49683545  0.23284173    -0.19400
H858        H  0.80559106  0.42920120  0.21528524     0.16300
F859        F  0.69750727  0.43849911  0.24683667    -0.23100
H860        H  0.76410272  0.50545922  0.26493454     0.18100
C861        C  0.78941715  0.51022659  0.17795359    -0.27200
C862        C  0.81411739  0.50237476  0.16427305     0.06500
C863        C  0.80298383  0.45711030  0.16055136     0.26100
C864        C  0.76909884  0.42070144  0.17105734    -0.11600
C865        C  0.74614438  0.42889929  0.18548658    -0.25600
C866        C  0.75538577  0.47382052  0.18833976     0.36900
C867        C  0.85402242  0.54160134  0.15547596     0.06500
F868        F  0.82681613  0.44836318  0.14775283    -0.19400
H869        H  0.76232539  0.38630201  0.16864614     0.16300
F870        F  0.73215926  0.48261464  0.20146001    -0.23100
H871        H  0.79720163  0.54478174  0.18088912     0.18100
C872        C  0.86105036  0.54540306  0.13524918     0.26100
C873        C  0.90089776  0.58054394  0.12751337    -0.11600
C874        C  0.93431054  0.61206362  0.13983310    -0.25600
C875        C  0.92655419  0.60933334  0.15997505     0.37000
C876        C  0.88668878  0.57450268  0.16767416    -0.27300
F877        F  0.82958309  0.51497351  0.12302174    -0.19400
H878        H  0.90629580  0.58223460  0.11195553     0.16300
F879        F  0.95778729  0.64006859  0.17221695    -0.23100
H880        H  0.88188240  0.57226985  0.18328652     0.18100
C881        C  0.55470884  0.30720557  0.26105261    -0.27200
C882        C  0.53837642  0.33624776  0.25726879     0.06500
C883        C  0.55561401  0.36728285  0.24159738     0.26100
C884        C  0.58859725  0.36917724  0.22992408    -0.11600
C885        C  0.60451727  0.33979179  0.23350046    -0.25600
C886        C  0.58781321  0.30908788  0.24929449     0.36900
C887        C  0.50309031  0.33427120  0.26939596     0.06500
F888        F  0.53962970  0.39489734  0.23725708    -0.19400
H889        H  0.60146105  0.39330872  0.21790564     0.16300
F890        F  0.60251130  0.28006755  0.25296633    -0.23100
H891        H  0.54182175  0.28317679  0.27310203     0.18100
C892        C  0.46199501  0.29356247  0.27126045     0.26100
C893        C  0.42709135  0.29393712  0.28057505    -0.11600
C894        C  0.43280160  0.33484994  0.28809498    -0.25600
C895        C  0.47464463  0.37489496  0.28716242     0.37000
C896        C  0.50940154  0.37449664  0.27787781    -0.27300
F897        F  0.45491772  0.25419369  0.26310462    -0.19400
H898        H  0.39509893  0.26274161  0.28118691     0.16300
F899        F  0.48176297  0.41452818  0.29504972    -0.23100
H900        H  0.54111885  0.40596141  0.27686035     0.18100
C901        C  0.72234604  0.25249820  0.25629109    -0.27200
C902        C  0.68929402  0.20636461  0.25417550     0.06500
C903        C  0.65350819  0.19485132  0.24174369     0.26100
C904        C  0.65212834  0.22870692  0.23083542    -0.11600
C905        C  0.68632868  0.27447696  0.23215411    -0.25600
C906        C  0.72088983  0.28647551  0.24535301     0.36900
C907        C  0.69315758  0.16986189  0.26394723     0.06500
F908        F  0.62008480  0.15073059  0.24005209    -0.19400
H909        H  0.62468283  0.21918408  0.22109888     0.16300
F910        F  0.75416062  0.33066884  0.24697589    -0.23100
H911        H  0.75000830  0.26193296  0.26587314     0.18100
C912        C  0.69314378  0.13553649  0.25279644     0.26100
C913        C  0.69199321  0.09829812  0.26187157    -0.11600
C914        C  0.69088443  0.09450956  0.28223690    -0.25600
C915        C  0.69390609  0.13040878  0.29345340     0.37000
C916        C  0.69505448  0.16789113  0.28430579    -0.27300
F917        F  0.69339571  0.13766321  0.23307274    -0.19400
H918        H  0.69060436  0.07152717  0.25294729     0.16300
F919        F  0.69292009  0.12789905  0.31316390    -0.23100
H920        H  0.69549004  0.19435253  0.29309629     0.18100
C921        C  0.65244033  0.21812702  0.16070722    -0.27200
C922        C  0.67927321  0.20035837  0.16548529     0.06500
C923        C  0.70887886  0.21952963  0.18113597     0.26100
C924        C  0.71142427  0.25571133  0.19162217    -0.11600
C925        C  0.68283652  0.27171878  0.18748205    -0.25600
C926        C  0.65327513  0.25252019  0.17183899     0.36900
C927        C  0.67474011  0.16066124  0.15468470     0.06500
F928        F  0.73405208  0.20215457  0.18686442    -0.19400
H929        H  0.73516928  0.27050594  0.20328882     0.16300
F930        F  0.62366007  0.26531393  0.16771997    -0.23100
H931        H  0.62994318  0.20467745  0.14853332     0.18100
C932        C  0.63278944  0.12315451  0.15022198     0.26100
C933        C  0.62874253  0.08488353  0.14108185    -0.11600
C934        C  0.66611964  0.08219218  0.13679046    -0.25600
C935        C  0.70817185  0.12019638  0.14074191     0.37000
C936        C  0.71228225  0.15922024  0.14933658    -0.27300
F937        F  0.59545651  0.12226202  0.15554670    -0.19400
H938        H  0.59598470  0.05659927  0.13785729     0.16300
F939        F  0.74525929  0.11896454  0.13730770    -0.23100
H940        H  0.74496526  0.18801783  0.15220696     0.18100
C941        C  0.13811477  0.13984849  0.06671122    -0.27200
C942        C  0.17656211  0.18173095  0.06231056     0.06500
C943        C  0.18415705  0.19778149  0.04302947     0.26100
C944        C  0.15445067  0.17204099  0.02842091    -0.11600
C945        C  0.11629614  0.12955023  0.03258131    -0.25600
C946        C  0.10816107  0.11387556  0.05203713     0.36900
C947        C  0.20895679  0.20877839  0.07768036     0.06500
F948        F  0.22012717  0.23882771  0.03831601    -0.19400
H949        H  0.16170405  0.18557510  0.01372793     0.16300
F950        F  0.07185310  0.07326255  0.05691604    -0.23100
H951        H  0.13168932  0.12684091  0.08149398     0.18100
C952        C  0.19590566  0.22132197  0.09466934     0.26100
C953        C  0.22740526  0.24971918  0.10832691    -0.11600
C954        C  0.27244497  0.26597761  0.10536877    -0.25600
C955        C  0.28529027  0.25240971  0.08856909     0.37000
C956        C  0.25378927  0.22407839  0.07492808    -0.27300
F957        F  0.15295489  0.20763676  0.09769506    -0.19400
H958        H  0.21659439  0.25932575  0.12120569     0.16300
F959        F  0.32843728  0.26807903  0.08487071    -0.23100
H960        H  0.26451443  0.21455893  0.06199200     0.18100
C961        C  0.55893560  0.34612667  0.16390997    -0.27200
C962        C  0.51731014  0.31343268  0.17133358     0.06500
C963        C  0.51490129  0.28576862  0.18711537     0.26100
C964        C  0.55343393  0.29291205  0.19597182    -0.11600
C965        C  0.59495980  0.32811703  0.18949332    -0.25600
C966        C  0.59746965  0.35334896  0.17282954     0.36900
C967        C  0.47715922  0.31059156  0.16317035     0.06500
F968        F  0.47539383  0.25202996  0.19404891    -0.19400
H969        H  0.55078711  0.27147559  0.20820477     0.16300
F970        F  0.63698529  0.38664528  0.16574458    -0.23100
H971        H  0.56167651  0.36759313  0.15167253     0.18100
C972        C  0.44609505  0.31194524  0.17545900     0.26100
C973        C  0.41082300  0.31399217  0.16757106    -0.11600
C974        C  0.40596104  0.31519676  0.14735893    -0.25600
C975        C  0.43649393  0.31319628  0.13503383     0.37000
C976        C  0.47169435  0.31076894  0.14291399    -0.27300
F977        F  0.45118053  0.31412711  0.19506576    -0.19400
H978        H  0.38780004  0.31592434  0.17729140     0.16300
F979        F  0.43372322  0.31620502  0.11545393    -0.23100
H980        H  0.49538698  0.31016117  0.13317637     0.18100
C981        C  0.36755199  0.48497523  0.15665950    -0.27200
C982        C  0.32927642  0.47677785  0.16635319     0.06500
C983        C  0.29154568  0.43259093  0.16598355     0.26100
C984        C  0.29275801  0.39699525  0.15661831    -0.11600
C985        C  0.33159302  0.40487055  0.14759396    -0.25600
C986        C  0.36880434  0.44940009  0.14736664     0.36900
C987        C  0.32933014  0.51405910  0.17726015     0.06500
F988        F  0.25422686  0.42335367  0.17547184    -0.19400
H989        H  0.26390850  0.36284438  0.15708257     0.16300
F990        F  0.40642197  0.45839755  0.13822101    -0.23100
H991        H  0.39665926  0.51896106  0.15643419     0.18100
C992        C  0.36254838  0.53970430  0.19095815     0.26100
C993        C  0.36187633  0.57421510  0.20144698    -0.11600
C994        C  0.32804795  0.58345104  0.19852668    -0.25600
C995        C  0.29507949  0.55827833  0.18478662     0.37000
C996        C  0.29573954  0.52377756  0.17424362    -0.27300
F997        F  0.39497920  0.53061279  0.19456430    -0.19400
H998        H  0.38764806  0.59367520  0.21194349     0.16300
F999        F  0.26168874  0.56628923  0.18196418    -0.23100
H1000       H  0.27004441  0.50464417  0.16368362     0.18100
loop_ 
_geom_bond_atom_site_label_1 
_geom_bond_atom_site_label_2 
_geom_bond_distance 
_geom_bond_site_symmetry_2 
_ccdc_geom_bond_type 
C1            C2   1.409       .  A
C1            C6   1.409       .  A
C1          C954   1.487       .  S
C2            C3   1.404       .  A
C2            H7   1.083       .  S
C3            C4   1.400       .  A
C3          C974   1.479       .  S
C4            C5   1.399       .  A
C4            H8   1.084       .  S
C5            C6   1.403       .  A
C5          C985   1.478       .  S
C6            H9   1.084       .  S
C10          H11   1.112       .  S
C10          C16   1.529       .  S
C10          C15   1.530       .  S
C10          C14   1.528       .  S
C12          H13   1.109       .  S
C12          C18   1.537       .  S
C12          C17   1.533       .  S
C12          C19   1.537       .  S
C14          C17   1.371       .  D
C14         C854   1.472       .  S
C15          C18   1.379       .  D
C15         C905   1.479       .  S
C16          C19   1.377       .  D
C16         C885   1.477       .  S
C17         C865   1.484       .  S
C18         C925   1.486       .  S
C19         C965   1.486       .  S
C20          H21   1.110       .  S
C20          C26   1.534       .  S
C20          C25   1.535       .  S
C20          C24   1.536       .  S
C22          H23   1.112       .  S
C22          C28   1.528       .  S
C22          C27   1.532       .  S
C22          C29   1.530       .  S
C24          C27   1.377       .  D
C24         C834   1.491       .  S
C25          C28   1.375       .  D
C25         C765   1.477       .  S
C26          C29   1.374       .  D
C26         C805   1.479       .  S
C27         C994   1.475       .  S
C28         C754   1.482       .  S
C29         C785   1.479       .  S
C30          C31   1.408   1_455  A
C30          C35   1.408       .  A
C30         C734   1.485       .  S
C31          C32   1.402       .  A
C31          H36   1.084       .  S
C32          C33   1.400   1_655  A
C32         C874   1.479       .  S
C33          C34   1.400       .  A
C33          H37   1.084       .  S
C34          C35   1.404       .  A
C34         C745   1.477       .  S
C35          H38   1.084       .  S
C39          C40   1.408   1_565  A
C39          C44   1.407       .  A
C39         C705   1.484       .  S
C40          C41   1.403       .  A
C40          H45   1.082       .  S
C41          C42   1.401   1_545  A
C41         C934   1.485       .  S
C42          C43   1.398       .  A
C42          H46   1.084       .  S
C43          C44   1.401       .  A
C43         C794   1.475       .  S
C44          H47   1.083       .  S
C48          C49   1.405   1_455  A
C48          C53   1.404       .  A
C48         C685   1.477       .  S
C49          C50   1.397       .  A
C49          H54   1.084       .  S
C50          C51   1.397   1_655  A
C50         C845   1.471       .  S
C51          C52   1.401       .  A
C51          H55   1.084       .  S
C52          C53   1.402       .  A
C52         C774   1.481       .  S
C53          H56   1.082       .  S
C57          C58   1.409       .  A
C57          C62   1.407   1_545  A
C57         C665   1.483       .  S
C58          C59   1.405       .  A
C58          H63   1.083       .  S
C59          C60   1.402       .  A
C59         C914   1.482       .  S
C60          C61   1.399   1_545  A
C60          H64   1.084       .  S
C61          C62   1.401       .  A
C61         C814   1.480       .  S
C62          H65   1.084       .  S
C66          C67   1.409       .  A
C66          C71   1.405       .  A
C66         C645   1.487       .  S
C67          C68   1.406       .  A
C67          H72   1.081       .  S
C68          C69   1.405       .  A
C68         C825   1.493       .  S
C69          C70   1.402       .  A
C69          H73   1.083       .  S
C70          C71   1.400       .  A
C70         C894   1.479       .  S
C71          H74   1.084       .  S
Zr75         O76   2.440   1_545  S
Zr75         O77   2.437       .  S
Zr75         O78   2.437   1_655  S
Zr75         O81   2.423   1_545  S
Zr75         O83   2.381   1_655  S
Zr75         O84   2.382       .  S
Zr75         O85   2.403   1_645  S
Zr75         O86   2.399   1_545  S
O76         H132   0.990   1_655  S
O76         H140   0.990   1_655  S
O77          C97   1.285       .  A
O78          C99   1.285       .  A
O79         Zr89   2.436       .  S
O79          C98   1.286       .  A
O80         Zr88   2.422       .  S
O80          C99   1.283       .  A
O81          C98   1.284       .  A
O82         Zr90   2.412   1_655  S
O82          C97   1.281       .  A
O83         Zr88   2.392       .  S
O83         Zr90   2.377       .  S
O84         Zr89   2.387   1_545  S
O84         Zr90   2.374   1_655  S
O84         H119   0.969       .  S
O85         Zr88   2.394   1_565  S
O85        Zr105   2.392   1_455  S
O85         H122   0.966       .  S
O86         Zr89   2.386       .  S
O86        Zr105   2.389       .  S
Zr87        O112   2.442       .  S
Zr87        O106   2.426   1_545  S
Zr87        O114   2.445   1_445  S
Zr87        O102   2.442       .  S
Zr87         O93   2.399   1_455  S
Zr87         O94   2.404       .  S
Zr87         O95   2.379   1_545  S
Zr87         O96   2.387   1_445  S
Zr88        O107   2.436       .  S
Zr88        O100   2.435       .  S
Zr88        O101   2.419       .  S
Zr88         O94   2.395       .  S
Zr88         O95   2.388   1_545  S
Zr89         O91   2.435       .  S
Zr89        O113   2.438       .  S
Zr89        O115   2.421       .  S
Zr89         O93   2.396   1_565  S
Zr89         O96   2.394       .  S
Zr90        O116   2.435   1_455  S
Zr90        O117   2.436       .  S
Zr90         O92   2.437       .  S
Zr90         O93   2.389   1_455  S
Zr90         O94   2.388       .  S
O91         H128   0.990       .  S
O92         H123   0.990       .  S
O92         H137   0.990       .  S
O94         H120   0.965       .  S
O95        Zr105   2.377   1_455  S
O96        Zr105   2.382       .  S
O96         H121   0.966       .  S
C97         C614   1.487       .  S
C98         C594   1.488       .  S
C99         C625   1.487       .  S
O100        H136   0.990       .  S
O101        C103   1.283       .  A
O102        C103   1.286       .  A
C103        C654   1.483       .  S
O104       Zr105   2.440       .  S
O104        H133   0.990       .  S
Zr105       O108   2.438   1_655  S
Zr105       O109   2.438       .  S
Zr105       O110   2.411       .  S
O106        C111   1.282       .  A
O107        H124   0.990       .  S
O107        H139   0.990       .  S
O108        H125   0.990       .  S
O109        H129   0.990       .  S
O109        H138   0.990       .  S
O110        C111   1.282   1_655  A
C111        C694   1.480       .  S
O112        H131   0.991   1_455  S
O112        H135   0.990   1_455  S
O113        H127   0.990       .  S
O113        H134   0.990       .  S
O114        C118   1.286       .  A
O115        C118   1.283       .  A
O116        H126   0.990       .  S
O117        H130   0.990       .  S
C118        C674   1.484       .  S
Zr141       O142   2.442   1_655  S
Zr141       O143   2.435   1_545  S
Zr141       O144   2.434   1_645  S
Zr141       O147   2.433       .  S
Zr141       O149   2.383   1_545  S
Zr141       O150   2.380   1_545  S
Zr141       O151   2.407   1_655  S
Zr141       O152   2.399   1_655  S
O142        H198   0.990       .  S
O142        H206   0.990       .  S
O143        C163   1.283       .  A
O144        C165   1.284       .  A
O145       Zr155   2.437       .  S
O145        C164   1.285       .  A
O146       Zr154   2.427       .  S
O146        C165   1.283       .  A
O147        C164   1.284       .  A
O148       Zr156   2.393       .  S
O148        C163   1.277       .  A
O149       Zr154   2.399   1_655  S
O149       Zr156   2.377       .  S
O150       Zr155   2.392   1_565  S
O150       Zr156   2.380       .  S
O150        H185   0.960       .  S
O151       Zr154   2.401   1_545  S
O151       Zr171   2.393       .  S
O151        H188   0.965       .  S
O152       Zr155   2.386   1_455  S
O152       Zr171   2.391       .  S
Zr153       O178   2.441   1_545  S
Zr153       O172   2.442   1_655  S
Zr153       O180   2.439       .  S
Zr153       O168   2.446   1_645  S
Zr153       O159   2.395   1_544  S
Zr153       O160   2.411   1_544  S
Zr153       O161   2.378   1_654  S
Zr153       O162   2.387   1_654  S
Zr154       O173   2.435       .  S
Zr154       O166   2.434       .  S
Zr154       O167   2.432       .  S
Zr154       O160   2.402   1_455  S
Zr154       O161   2.394   1_565  S
Zr155       O157   2.439       .  S
Zr155       O179   2.439       .  S
Zr155       O181   2.417       .  S
Zr155       O159   2.390   1_545  S
Zr155       O162   2.398   1_655  S
Zr156       O182   2.435       .  S
Zr156       O183   2.435       .  S
Zr156       O158   2.437       .  S
Zr156       O159   2.378       .  S
Zr156       O160   2.384       .  S
O157        H194   0.990       .  S
O158        H189   0.990       .  S
O158        H203   0.990       .  S
O160        H186   0.965       .  S
O161       Zr171   2.381       .  S
O162       Zr171   2.381       .  S
O162        H187   0.966       .  S
C163        C525   1.478       .  S
C164        C574   1.486       .  S
C165        C545   1.487       .  S
O166        H202   0.989   1_455  S
O167        C169   1.284   1_556  A
O168        C169   1.286       .  A
C169        C725   1.488       .  S
O170       Zr171   2.438       .  S
O170        H199   0.991       .  S
Zr171       O174   2.437       .  S
Zr171       O175   2.439       .  S
Zr171       O176   2.409       .  S
O172        C177   1.284       .  A
O173        H190   0.990       .  S
O173        H205   0.990   1_565  S
O174        H191   0.990       .  S
O175        H195   0.990       .  S
O175        H204   0.990       .  S
O176        C177   1.280   1_556  A
C177        C945   1.489       .  S
O178        H197   0.991       .  S
O178        H201   0.990       .  S
O179        H193   0.990       .  S
O179        H200   0.990       .  S
O180        C184   1.286       .  A
O181        C184   1.283   1_556  A
O182        H192   0.990       .  S
O183        H196   0.990       .  S
C184        C714   1.478       .  S
C207        C208   1.410       .  A
C207        C212   1.405   1_655  A
C207        C605   1.484       .  S
C208        C209   1.408       .  A
C208        H213   1.083       .  S
C209        C210   1.403       .  A
C209        C485   1.481       .  S
C210        C211   1.398   1_655  A
C210        H214   1.084       .  S
C211        C212   1.397       .  A
C211        C514   1.476       .  S
C212        H215   1.084       .  S
C216        C217   1.410   1_655  A
C216        C221   1.408       .  A
C216        C565   1.490       .  S
C217        C218   1.404       .  A
C217        H222   1.083       .  S
C218        C219   1.401   1_455  A
C218        C474   1.483       .  S
C219        C220   1.403       .  A
C219        H223   1.084       .  S
C220        C221   1.405       .  A
C220        C445   1.487       .  S
C221        H224   1.082       .  S
C225        H226   1.112       .  S
C225        C231   1.532       .  S
C225        C230   1.531       .  S
C225        C229   1.532       .  S
C227        H228   1.110       .  S
C227        C233   1.534       .  S
C227        C232   1.532       .  S
C227        C234   1.532       .  S
C229        C232   1.374       .  D
C229        C414   1.473       .  S
C230        C233   1.376       .  D
C230        C494   1.482       .  S
C231        C234   1.377       .  D
C231        C374   1.480       .  S
C232        C425   1.485       .  S
C233        C454   1.481       .  S
C234        C385   1.480       .  S
C235        H236   1.111       .  S
C235        C241   1.531       .  S
C235        C240   1.528       .  S
C235        C239   1.539       .  S
C237        H238   1.111       .  S
C237        C243   1.536       .  S
C237        C242   1.537       .  S
C237        C244   1.539       .  S
C239        C242   1.380       .  D
C239        C334   1.473       .  S
C240        C243   1.369       .  D
C240        C294   1.474       .  S
C241        C244   1.377       .  D
C241        C465   1.493       .  S
C242        C354   1.495       .  S
C243        C305   1.477       .  S
C244        C505   1.478       .  S
C245        C246   1.404       .  A
C245        C250   1.409   1_545  A
C245        C634   1.482       .  S
C246        C247   1.401       .  A
C246        H251   1.084       .  S
C247        C248   1.399       .  A
C247        C405   1.479       .  S
C248        C249   1.403   1_545  A
C248        H252   1.083       .  S
C249        C250   1.407       .  A
C249        C345   1.487       .  S
C250        H253   1.083       .  S
C254        C255   1.412       .  A
C254        C259   1.407       .  A
C254        C585   1.488       .  S
C255        C256   1.406       .  A
C255        H260   1.083       .  S
C256        C257   1.401       .  A
C256        C365   1.481       .  S
C257        C258   1.398       .  A
C257        H261   1.084       .  S
C258        C259   1.401       .  A
C258        C314   1.479       .  S
C259        H262   1.083       .  S
C263        C264   1.399       .  A
C263        C268   1.401       .  A
C263        C534   1.468       .  S
C264        C265   1.399       .  A
C264        H269   1.083       .  S
C265        C266   1.405       .  A
C265        C394   1.482       .  S
C266        C267   1.402       .  A
C266        H270   1.084       .  S
C267        C268   1.401       .  A
C267        C285   1.474       .  S
C268        H271   1.084       .  S
C272        C273   1.409       .  A
C272        C277   1.407   1_545  A
C272        C554   1.481   1_545  S
C273        C274   1.404       .  A
C273        H278   1.084       .  S
C274        C275   1.400       .  A
C274        C434   1.482       .  S
C275        C276   1.398   1_545  A
C275        H279   1.084       .  S
C276        C277   1.401       .  A
C276        C325   1.480       .  S
C277        H280   1.083       .  S
C281        C282   1.403       .  A
C281        C286   1.398       .  A
C281        H291   1.083       .  S
C282        C283   1.406       .  A
C282        C287   1.476       .  S
C283        C284   1.396       .  A
C283        F288   1.358       .  S
C284        C285   1.403       .  A
C284        H289   1.083       .  S
C285        C286   1.405       .  A
C286        F290   1.357       .  S
C287        C292   1.406       .  A
C287        C296   1.404       .  A
C292        C293   1.396       .  A
C292        F297   1.358       .  S
C293        C294   1.400       .  A
C293        H298   1.084       .  S
C294        C295   1.403       .  A
C295        C296   1.397       .  A
C295        F299   1.357       .  S
C296        H300   1.083       .  S
C301        C302   1.402       .  A
C301        C306   1.398       .  A
C301        H311   1.083       .  S
C302        C303   1.405       .  A
C302        C307   1.475       .  S
C303        C304   1.398       .  A
C303        F308   1.357       .  S
C304        C305   1.401       .  A
C304        H309   1.083       .  S
C305        C306   1.404       .  A
C306        F310   1.356       .  S
C307        C312   1.404       .  A
C307        C316   1.402       .  A
C312        C313   1.398       .  A
C312        F317   1.357       .  S
C313        C314   1.404       .  A
C313        H318   1.083       .  S
C314        C315   1.408       .  A
C315        C316   1.397       .  A
C315        F319   1.358       .  S
C316        H320   1.083       .  S
C321        C322   1.405       .  A
C321        C326   1.398       .  A
C321        H331   1.083       .  S
C322        C323   1.403       .  A
C322        C327   1.476       .  S
C323        C324   1.394       .  A
C323        F328   1.357       .  S
C324        C325   1.405       .  A
C324        H329   1.083       .  S
C325        C326   1.407       .  A
C326        F330   1.357       .  S
C327        C332   1.409       .  A
C327        C336   1.401       .  A
C332        C333   1.399       .  A
C332        F337   1.358       .  S
C333        C334   1.400       .  A
C333        H338   1.083       .  S
C334        C335   1.403       .  A
C335        C336   1.393       .  A
C335        F339   1.355       .  S
C336        H340   1.083       .  S
C341        C342   1.406       .  A
C341        C346   1.396       .  A
C341        H351   1.082       .  S
C342        C343   1.411       .  A
C342        C347   1.491       .  S
C343        C344   1.400       .  A
C343        F348   1.357       .  S
C344        C345   1.405       .  A
C344        H349   1.083       .  S
C345        C346   1.409       .  A
C346        F350   1.358       .  S
C347        C352   1.409       .  A
C347        C356   1.406       .  A
C352        C353   1.400       .  A
C352        F357   1.358       .  S
C353        C354   1.406       .  A
C353        H358   1.080       .  S
C354        C355   1.406       .  A
C355        C356   1.397       .  A
C355        F359   1.354       .  S
C356        H360   1.082       .  S
C361        C362   1.407       .  A
C361        C366   1.402       .  A
C361        H371   1.083       .  S
C362        C363   1.405       .  A
C362        C367   1.483       .  S
C363        C364   1.395       .  A
C363        F368   1.358       .  S
C364        C365   1.405       .  A
C364        H369   1.084       .  S
C365        C366   1.406       .  A
C366        F370   1.357       .  S
C367        C372   1.406       .  A
C367        C376   1.406       .  A
C372        C373   1.399       .  A
C372        F377   1.357       .  S
C373        C374   1.402       .  A
C373        H378   1.083       .  S
C374        C375   1.404       .  A
C375        C376   1.397       .  A
C375        F379   1.358       .  S
C376        H380   1.083       .  S
C381        C382   1.405       .  A
C381        C386   1.395       .  A
C381        H391   1.083       .  S
C382        C383   1.408       .  A
C382        C387   1.482       .  S
C383        C384   1.394       .  A
C383        F388   1.357       .  S
C384        C385   1.402       .  A
C384        H389   1.083       .  S
C385        C386   1.405       .  A
C386        F390   1.357       .  S
C387        C392   1.408       .  A
C387        C396   1.404       .  A
C392        C393   1.392       .  A
C392        F397   1.357       .  S
C393        C394   1.403       .  A
C393        H398   1.083       .  S
C394        C395   1.410       .  A
C395        C396   1.396       .  A
C395        F399   1.358       .  S
C396        H400   1.083       .  S
C401        C402   1.402       .  A
C401        C406   1.394       .  A
C401        H411   1.083       .  S
C402        C403   1.406       .  A
C402        C407   1.474       .  S
C403        C404   1.397       .  A
C403        F408   1.358       .  S
C404        C405   1.404       .  A
C404        H409   1.083       .  S
C405        C406   1.408       .  A
C406        F410   1.358       .  S
C407        C412   1.406       .  A
C407        C416   1.403       .  A
C412        C413   1.395       .  A
C412        F417   1.357       .  S
C413        C414   1.401       .  A
C413        H418   1.083       .  S
C414        C415   1.403       .  A
C415        C416   1.395       .  A
C415        F419   1.357       .  S
C416        H420   1.083       .  S
C421        C422   1.406       .  A
C421        C426   1.395       .  A
C421        H431   1.082       .  S
C422        C423   1.411       .  A
C422        C427   1.489       .  S
C423        C424   1.398       .  A
C423        F428   1.357       .  S
C424        C425   1.402       .  A
C424        H429   1.083       .  S
C425        C426   1.406       .  A
C426        F430   1.357       .  S
C427        C432   1.412       .  A
C427        C436   1.405       .  A
C432        C433   1.401       .  A
C432        F437   1.357       .  S
C433        C434   1.403       .  A
C433        H438   1.083       .  S
C434        C435   1.407       .  A
C435        C436   1.393       .  A
C435        F439   1.358       .  S
C436        H440   1.082       .  S
C441        C442   1.406       .  A
C441        C446   1.398       .  A
C441        H451   1.083       .  S
C442        C443   1.408       .  A
C442        C447   1.486       .  S
C443        C444   1.394       .  A
C443        F448   1.358       .  S
C444        C445   1.406       .  A
C444        H449   1.083       .  S
C445        C446   1.409       .  A
C446        F450   1.357       .  S
C447        C452   1.409       .  A
C447        C456   1.406       .  A
C452        C453   1.395       .  A
C452        F457   1.357       .  S
C453        C454   1.402       .  A
C453        H458   1.083       .  S
C454        C455   1.404       .  A
C455        C456   1.395       .  A
C455        F459   1.358       .  S
C456        H460   1.083       .  S
C461        C462   1.404       .  A
C461        C466   1.398       .  A
C461        H471   1.083       .  S
C462        C463   1.406       .  A
C462        C467   1.484       .  S
C463        C464   1.400       .  A
C463        F468   1.357       .  S
C464        C465   1.404       .  A
C464        H469   1.078       .  S
C465        C466   1.408       .  A
C466        F470   1.357       .  S
C467        C472   1.406       .  A
C467        C476   1.405       .  A
C472        C473   1.396       .  A
C472        F477   1.355       .  S
C473        C474   1.404       .  A
C473        H478   1.083       .  S
C474        C475   1.407       .  A
C475        C476   1.402       .  A
C475        F479   1.357       .  S
C476        H480   1.083       .  S
C481        C482   1.407       .  A
C481        C486   1.402       .  A
C481        H491   1.083       .  S
C482        C483   1.406       .  A
C482        C487   1.485       .  S
C483        C484   1.396       .  A
C483        F488   1.358       .  S
C484        C485   1.405       .  A
C484        H489   1.083       .  S
C485        C486   1.405       .  A
C486        F490   1.357       .  S
C487        C492   1.407       .  A
C487        C496   1.406       .  A
C492        C493   1.400       .  A
C492        F497   1.357       .  S
C493        C494   1.403       .  A
C493        H498   1.083       .  S
C494        C495   1.405       .  A
C495        C496   1.397       .  A
C495        F499   1.358       .  S
C496        H500   1.083       .  S
C501        C502   1.402       .  A
C501        C506   1.393       .  A
C501        H511   1.083       .  S
C502        C503   1.407       .  A
C502        C507   1.477       .  S
C503        C504   1.400       .  A
C503        F508   1.357       .  S
C504        C505   1.402       .  A
C504        H509   1.083       .  S
C505        C506   1.405       .  A
C506        F510   1.358       .  S
C507        C512   1.406       .  A
C507        C516   1.402       .  A
C512        C513   1.396       .  A
C512        F517   1.355       .  S
C513        C514   1.402       .  A
C513        H518   1.083       .  S
C514        C515   1.406       .  A
C515        C516   1.397       .  A
C515        F519   1.357       .  S
C516        H520   1.083       .  S
C521        C522   1.403       .  A
C521        C526   1.396       .  A
C521        H531   1.083       .  S
C522        C523   1.401       .  A
C522        C527   1.470       .  S
C523        C524   1.391       .  A
C523        F528   1.358       .  S
C524        C525   1.409       .  A
C524        H529   1.083       .  S
C525        C526   1.408       .  A
C526        F530   1.357       .  S
C527        C532   1.407       .  A
C527        C536   1.400       .  A
C532        C533   1.397       .  A
C532        F537   1.358       .  S
C533        C534   1.402       .  A
C533        H538   1.083       .  S
C534        C535   1.405       .  A
C535        C536   1.391       .  A
C535        F539   1.358       .  S
C536        H540   1.083       .  S
C541        C542   1.404       .  A
C541        C546   1.399       .  A
C541        H551   1.083       .  S
C542        C543   1.405       .  A
C542        C547   1.482       .  S
C543        C544   1.396       .  A
C543        F548   1.358   1_565  S
C544        C545   1.408       .  A
C544        H549   1.083       .  S
C545        C546   1.412       .  A
C546        F550   1.357       .  S
C547        C552   1.407   1_565  A
C547        C556   1.404       .  A
C552        C553   1.398       .  A
C552        F557   1.358       .  S
C553        C554   1.404   1_545  A
C553        H558   1.083       .  S
C554        C555   1.407       .  A
C555        C556   1.397       .  A
C555        F559   1.357       .  S
C556        H560   1.083       .  S
C561        C562   1.406       .  A
C561        C566   1.400       .  A
C561        H571   1.083       .  S
C562        C563   1.408   1_655  A
C562        C567   1.489       .  S
C563        C564   1.398       .  A
C563        F568   1.357       .  S
C564        C565   1.406   1_455  A
C564        H569   1.083       .  S
C565        C566   1.410       .  A
C566        F570   1.357       .  S
C567        C572   1.407       .  A
C567        C576   1.406       .  A
C572        C573   1.399       .  A
C572        F577   1.357       .  S
C573        C574   1.407       .  A
C573        H578   1.083       .  S
C574        C575   1.410       .  A
C575        C576   1.400       .  A
C575        F579   1.358       .  S
C576        H580   1.083       .  S
C581        C582   1.403       .  A
C581        C586   1.398       .  A
C581        H591   1.083       .  S
C582        C583   1.407       .  A
C582        C587   1.484       .  S
C583        C584   1.400       .  A
C583        F588   1.357       .  S
C584        C585   1.405       .  A
C584        H589   1.083       .  S
C585        C586   1.410       .  A
C586        F590   1.357       .  S
C587        C592   1.406       .  A
C587        C596   1.403       .  A
C592        C593   1.399       .  A
C592        F597   1.357       .  S
C593        C594   1.408       .  A
C593        H598   1.083       .  S
C594        C595   1.412       .  A
C595        C596   1.398       .  A
C595        F599   1.358       .  S
C596        H600   1.083       .  S
C601        C602   1.406       .  A
C601        C606   1.403       .  A
C601        H611   1.083       .  S
C602        C603   1.406   1_655  A
C602        C607   1.482       .  S
C603        C604   1.393       .  A
C603        F608   1.358       .  S
C604        C605   1.404   1_455  A
C604        H609   1.083       .  S
C605        C606   1.408       .  A
C606        F610   1.357       .  S
C607        C612   1.407       .  A
C607        C616   1.400       .  A
C612        C613   1.403       .  A
C612        F617   1.357       .  S
C613        C614   1.409       .  A
C613        H618   1.083       .  S
C614        C615   1.413       .  A
C615        C616   1.391       .  A
C615        F619   1.358       .  S
C616        H620   1.083       .  S
C621        C622   1.403       .  A
C621        C626   1.398       .  A
C621        H631   1.083       .  S
C622        C623   1.404       .  A
C622        C627   1.481       .  S
C623        C624   1.397       .  A
C623        F628   1.358       .  S
C624        C625   1.409       .  A
C624        H629   1.083       .  S
C625        C626   1.412       .  A
C626        F630   1.357       .  S
C627        C632   1.405       .  A
C627        C636   1.405       .  A
C632        C633   1.398       .  A
C632        F637   1.358       .  S
C633        C634   1.406       .  A
C633        H638   1.083       .  S
C634        C635   1.406       .  A
C635        C636   1.398       .  A
C635        F639   1.357   1_545  S
C636        H640   1.083       .  S
C641        C642   1.403       .  A
C641        C646   1.395       .  A
C641        H651   1.083       .  S
C642        C643   1.405       .  A
C642        C647   1.480       .  S
C643        C644   1.399       .  A
C643        F648   1.358       .  S
C644        C645   1.408       .  A
C644        H649   1.083       .  S
C645        C646   1.409       .  A
C646        F650   1.357       .  S
C647        C652   1.405       .  A
C647        C656   1.404       .  A
C652        C653   1.396       .  A
C652        F657   1.358       .  S
C653        C654   1.407       .  A
C653        H658   1.083       .  S
C654        C655   1.409       .  A
C655        C656   1.399       .  A
C655        F659   1.357       .  S
C656        H660   1.083       .  S
C661        C662   1.406       .  A
C661        C666   1.399       .  A
C661        H671   1.083       .  S
C662        C663   1.410   1_565  A
C662        C667   1.490       .  S
C663        C664   1.398       .  A
C663        F668   1.357       .  S
C664        C665   1.403       .  A
C664        H669   1.083       .  S
C665        C666   1.407   1_545  A
C666        F670   1.358       .  S
C667        C672   1.408       .  A
C667        C676   1.407       .  A
C672        C673   1.398       .  A
C672        F677   1.357       .  S
C673        C674   1.407       .  A
C673        H678   1.083       .  S
C674        C675   1.408       .  A
C675        C676   1.399       .  A
C675        F679   1.357       .  S
C676        H680   1.083       .  S
C681        C682   1.402       .  A
C681        C686   1.392       .  A
C681        H691   1.084       .  S
C682        C683   1.403   1_455  A
C682        C687   1.472       .  S
C683        C684   1.395       .  A
C683        F688   1.357       .  S
C684        C685   1.405   1_655  A
C684        H689   1.083       .  S
C685        C686   1.408       .  A
C686        F690   1.358       .  S
C687        C692   1.402   1_455  A
C687        C696   1.402       .  A
C692        C693   1.390       .  A
C692        F697   1.358       .  S
C693        C694   1.406   1_655  A
C693        H698   1.083       .  S
C694        C695   1.412       .  A
C695        C696   1.398       .  A
C695        F699   1.357       .  S
C696        H700   1.083       .  S
C701        C702   1.405   1_565  A
C701        C706   1.397       .  A
C701        H711   1.083       .  S
C702        C703   1.407       .  A
C702        C707   1.482       .  S
C703        C704   1.395       .  A
C703        F708   1.358       .  S
C704        C705   1.405   1_545  A
C704        H709   1.083       .  S
C705        C706   1.408       .  A
C706        F710   1.357       .  S
C707        C712   1.408       .  A
C707        C716   1.403       .  A
C712        C713   1.397       .  A
C712        F717   1.357       .  S
C713        C714   1.404       .  A
C713        H718   1.083       .  S
C714        C715   1.409       .  A
C715        C716   1.395       .  A
C715        F719   1.358   1_554  S
C716        H720   1.083       .  S
C721        C722   1.404       .  A
C721        C726   1.401       .  A
C721        H731   1.083       .  S
C722        C723   1.405       .  A
C722        C727   1.484       .  S
C723        C724   1.397       .  A
C723        F728   1.357       .  S
C724        C725   1.407       .  A
C724        H729   1.083       .  S
C725        C726   1.412       .  A
C726        F730   1.357   1_554  S
C727        C732   1.407       .  A
C727        C736   1.405       .  A
C732        C733   1.399       .  A
C732        F737   1.357   1_455  S
C733        C734   1.406       .  A
C733        H738   1.083   1_455  S
C734        C735   1.408       .  A
C735        C736   1.399       .  A
C735        F739   1.357       .  S
C736        H740   1.083       .  S
C741        C742   1.402       .  A
C741        C746   1.396       .  A
C741        H751   1.083       .  S
C742        C743   1.407       .  A
C742        C747   1.478       .  S
C743        C744   1.400       .  A
C743        F748   1.357       .  S
C744        C745   1.403       .  A
C744        H749   1.083       .  S
C745        C746   1.406       .  A
C746        F750   1.358       .  S
C747        C752   1.407       .  A
C747        C756   1.403       .  A
C752        C753   1.397       .  A
C752        F757   1.358       .  S
C753        C754   1.403       .  A
C753        H758   1.083       .  S
C754        C755   1.405       .  A
C755        C756   1.398       .  A
C755        F759   1.357       .  S
C756        H760   1.083       .  S
C761        C762   1.407       .  A
C761        C766   1.394       .  A
C761        H771   1.083       .  S
C762        C763   1.409       .  A
C762        C767   1.483       .  S
C763        C764   1.393       .  A
C763        F768   1.357       .  S
C764        C765   1.402       .  A
C764        H769   1.083       .  S
C765        C766   1.402       .  A
C766        F770   1.357       .  S
C767        C772   1.408       .  A
C767        C776   1.406       .  A
C772        C773   1.390       .  A
C772        F777   1.358       .  S
C773        C774   1.404       .  A
C773        H778   1.083       .  S
C774        C775   1.408       .  A
C775        C776   1.397       .  A
C775        F779   1.357       .  S
C776        H780   1.082       .  S
C781        C782   1.404       .  A
C781        C786   1.395       .  A
C781        H791   1.083       .  S
C782        C783   1.406       .  A
C782        C787   1.478       .  S
C783        C784   1.399       .  A
C783        F788   1.357       .  S
C784        C785   1.402       .  A
C784        H789   1.083       .  S
C785        C786   1.405       .  A
C786        F790   1.358       .  S
C787        C792   1.405       .  A
C787        C796   1.406       .  A
C792        C793   1.394       .  A
C792        F797   1.358       .  S
C793        C794   1.403       .  A
C793        H798   1.084       .  S
C794        C795   1.404       .  A
C795        C796   1.400       .  A
C795        F799   1.357       .  S
C796        H800   1.083       .  S
C801        C802   1.403       .  A
C801        C806   1.394       .  A
C801        H811   1.083       .  S
C802        C803   1.408       .  A
C802        C807   1.479       .  S
C803        C804   1.399       .  A
C803        F808   1.357       .  S
C804        C805   1.402       .  A
C804        H809   1.083       .  S
C805        C806   1.405       .  A
C806        F810   1.357       .  S
C807        C812   1.407       .  A
C807        C816   1.403       .  A
C812        C813   1.400       .  A
C812        F817   1.357       .  S
C813        C814   1.405       .  A
C813        H818   1.083       .  S
C814        C815   1.407       .  A
C815        C816   1.394       .  A
C815        F819   1.358       .  S
C816        H820   1.084       .  S
C821        C822   1.407       .  A
C821        C826   1.401       .  A
C821        H831   1.083       .  S
C822        C823   1.408       .  A
C822        C827   1.491       .  S
C823        C824   1.395       .  A
C823        F828   1.357       .  S
C824        C825   1.406       .  A
C824        H829   1.083       .  S
C825        C826   1.410       .  A
C826        F830   1.357       .  S
C827        C832   1.409       .  A
C827        C836   1.407       .  A
C832        C833   1.396       .  A
C832        F837   1.357       .  S
C833        C834   1.405       .  A
C833        H838   1.082       .  S
C834        C835   1.407       .  A
C835        C836   1.399       .  A
C835        F839   1.357       .  S
C836        H840   1.083       .  S
C841        C842   1.400       .  A
C841        C846   1.391       .  A
C841        H851   1.084       .  S
C842        C843   1.405       .  A
C842        C847   1.469       .  S
C843        C844   1.398       .  A
C843        F848   1.357       .  S
C844        C845   1.403       .  A
C844        H849   1.083       .  S
C845        C846   1.405       .  A
C846        F850   1.358       .  S
C847        C852   1.405       .  A
C847        C856   1.401       .  A
C852        C853   1.392       .  A
C852        F857   1.358       .  S
C853        C854   1.400       .  A
C853        H858   1.083       .  S
C854        C855   1.404       .  A
C855        C856   1.396       .  A
C855        F859   1.357       .  S
C856        H860   1.083       .  S
C861        C862   1.404       .  A
C861        C866   1.397       .  A
C861        H871   1.083       .  S
C862        C863   1.408       .  A
C862        C867   1.481       .  S
C863        C864   1.399       .  A
C863        F868   1.357       .  S
C864        C865   1.402       .  A
C864        H869   1.083       .  S
C865        C866   1.407       .  A
C866        F870   1.357       .  S
C867        C872   1.407       .  A
C867        C876   1.404       .  A
C872        C873   1.400       .  A
C872        F877   1.357       .  S
C873        C874   1.404       .  A
C873        H878   1.083       .  S
C874        C875   1.406       .  A
C875        C876   1.396       .  A
C875        F879   1.358       .  S
C876        H880   1.084       .  S
C881        C882   1.404       .  A
C881        C886   1.399       .  A
C881        H891   1.083       .  S
C882        C883   1.406       .  A
C882        C887   1.476       .  S
C883        C884   1.392       .  A
C883        F888   1.357       .  S
C884        C885   1.401       .  A
C884        H889   1.083       .  S
C885        C886   1.405       .  A
C886        F890   1.357       .  S
C887        C892   1.406       .  A
C887        C896   1.402       .  A
C892        C893   1.399       .  A
C892        F897   1.358       .  S
C893        C894   1.405       .  A
C893        H898   1.083       .  S
C894        C895   1.406       .  A
C895        C896   1.394       .  A
C895        F899   1.358       .  S
C896        H900   1.083       .  S
C901        C902   1.403       .  A
C901        C906   1.401       .  A
C901        H911   1.083       .  S
C902        C903   1.407       .  A
C902        C907   1.478       .  S
C903        C904   1.395       .  A
C903        F908   1.358       .  S
C904        C905   1.401       .  A
C904        H909   1.083       .  S
C905        C906   1.405       .  A
C906        F910   1.357       .  S
C907        C912   1.404       .  A
C907        C916   1.405       .  A
C912        C913   1.393       .  A
C912        F917   1.358       .  S
C913        C914   1.405       .  A
C913        H918   1.084       .  S
C914        C915   1.408       .  A
C915        C916   1.403       .  A
C915        F919   1.357       .  S
C916        H920   1.083       .  S
C921        C922   1.403       .  A
C921        C926   1.393       .  A
C921        H931   1.083       .  S
C922        C923   1.409       .  A
C922        C927   1.483       .  S
C923        C924   1.396       .  A
C923        F928   1.357       .  S
C924        C925   1.404       .  A
C924        H929   1.082       .  S
C925        C926   1.407       .  A
C926        F930   1.357       .  S
C927        C932   1.407       .  A
C927        C936   1.405       .  A
C932        C933   1.392       .  A
C932        F937   1.358       .  S
C933        C934   1.405       .  A
C933        H938   1.083       .  S
C934        C935   1.408       .  A
C935        C936   1.397       .  A
C935        F939   1.357       .  S
C936        H940   1.083       .  S
C941        C942   1.405       .  A
C941        C946   1.403       .  A
C941        H951   1.083       .  S
C942        C943   1.404       .  A
C942        C947   1.484       .  S
C943        C944   1.394       .  A
C943        F948   1.358       .  S
C944        C945   1.408       .  A
C944        H949   1.083       .  S
C945        C946   1.412       .  A
C946        F950   1.357       .  S
C947        C952   1.405       .  A
C947        C956   1.405       .  A
C952        C953   1.400       .  A
C952        F957   1.357       .  S
C953        C954   1.407       .  A
C953        H958   1.083       .  S
C954        C955   1.408       .  A
C955        C956   1.398       .  A
C955        F959   1.357       .  S
C956        H960   1.083       .  S
C961        C962   1.406       .  A
C961        C966   1.397       .  A
C961        H971   1.083       .  S
C962        C963   1.407       .  A
C962        C967   1.484       .  S
C963        C964   1.396       .  A
C963        F968   1.358       .  S
C964        C965   1.406       .  A
C964        H969   1.083       .  S
C965        C966   1.404       .  A
C966        F970   1.357       .  S
C967        C972   1.408       .  A
C967        C976   1.407       .  A
C972        C973   1.395       .  A
C972        F977   1.358       .  S
C973        C974   1.404       .  A
C973        H978   1.084       .  S
C974        C975   1.405       .  A
C975        C976   1.400       .  A
C975        F979   1.357       .  S
C976        H980   1.083       .  S
C981        C982   1.404       .  A
C981        C986   1.396       .  A
C981        H991   1.083       .  S
C982        C983   1.407       .  A
C982        C987   1.480       .  S
C983        C984   1.398       .  A
C983        F988   1.357       .  S
C984        C985   1.403       .  A
C984        H989   1.083       .  S
C985        C986   1.407       .  A
C986        F990   1.358       .  S
C987        C992   1.408       .  A
C987        C996   1.405       .  A
C992        C993   1.395       .  A
C992        F997   1.357       .  S
C993        C994   1.401       .  A
C993        H998   1.084       .  S
C994        C995   1.402       .  A
C995        C996   1.397       .  A
C995        F999   1.358       .  S
C996       H1000   1.083       .  S
