geometry optimzed in LAMMPS
_audit_creation_date              2020-11-30 
_audit_creation_method            'lammps2cif' 
_symmetry_space_group_name_H-M    'P1' 
_symmetry_Int_Tables_number       1 
_symmetry_cell_setting            triclinic 
loop_ 
_symmetry_equiv_pos_as_xyz 
  x,y,z 
_cell_length_a                    44.35750698120776 
_cell_length_b                    44.3887916000614 
_cell_length_c                    44.2831336545309 
_cell_angle_alpha                 90.75907238746782 
_cell_angle_beta                  89.7949954754085 
_cell_angle_gamma                 89.60702045467019 
loop_ 
_atom_site_label 
_atom_site_type_symbol 
_atom_site_fract_x 
_atom_site_fract_y 
_atom_site_fract_z 
_atom_site_charge 
O1          O  0.02507969  0.50028658  0.29329096    -0.72970
O2          O  0.02691071  0.99926846  0.20289077    -0.73950
O3          O  0.02457982  0.04534870  0.24814270    -0.62570
O4          O  0.02707469  0.45424434  0.24816773    -0.70980
O5          O  0.47709611  0.45360187  0.24799831    -0.70530
O6          O  0.47462895  0.04420527  0.24655305    -0.61790
O7          O  0.47717454  0.99801628  0.20181777    -0.74290
O8          O  0.47515675  0.49977356  0.29272373    -0.73070
Cu9        Cu  0.02763648  0.99982709  0.24813155     1.04560
Cu10       Cu  0.47428104  0.49885679  0.24722344     1.04330
C11         C  0.99995068  0.50021307  0.30738512     0.93230
C12         C  0.00246497  0.99875553  0.18784150     0.92370
C13         C  0.99916197  0.05908121  0.24700417     0.84510
C14         C  0.00233461  0.43961940  0.24867737     0.90780
O15         O  0.02501658  0.24652934  0.20377296    -0.72970
O16         O  0.02758461  0.24985440  0.29405699    -0.73950
O17         O  0.02442594  0.20291271  0.25000440    -0.62570
O18         O  0.02792176  0.29357131  0.24758658    -0.70980
O19         O  0.47807136  0.29576440  0.25083066    -0.70530
O20         O  0.47444505  0.20486787  0.24988180    -0.61790
O21         O  0.47789054  0.25050132  0.29593754    -0.74290
O22         O  0.47510519  0.25029398  0.20503341    -0.73070
Cu23       Cu  0.02792956  0.24813846  0.24881328     1.04560
Cu24       Cu  0.47460346  0.25043999  0.25049840     1.04330
C25         C  0.49977272  0.24797905  0.19015037     0.93230
C26         C  0.50331237  0.25038038  0.30955662     0.92370
C27         C  0.49897275  0.18959134  0.25013613     0.84510
C28         C  0.50350593  0.30898792  0.24879803     0.90780
O29         O  0.27683076  0.99766887  0.29814839    -0.72970
O30         O  0.28281724  0.00073761  0.20697457    -0.73950
O31         O  0.27991893  0.04408026  0.25434277    -0.62570
O32         O  0.27985459  0.45386976  0.25085201    -0.70980
O33         O  0.23019240  0.45463019  0.24799949    -0.70530
O34         O  0.23030876  0.04441267  0.25148798    -0.61790
O35         O  0.23302495  0.00117910  0.20494635    -0.74290
O36         O  0.22726266  0.99830772  0.29495462    -0.73070
Cu37       Cu  0.28163007  0.99900680  0.25270613     1.04560
Cu38       Cu  0.22855609  0.99957746  0.24976576     1.04330
C39         C  0.25096366  0.99752486  0.31110915     0.93230
C40         C  0.25855469  0.00217163  0.19155118     0.92370
C41         C  0.25515815  0.05872892  0.25291540     0.84510
C42         C  0.25494443  0.43978981  0.24902772     0.90780
O43         O  0.27241040  0.24958111  0.20489428    -0.72970
O44         O  0.27225670  0.24898978  0.29565869    -0.73950
O45         O  0.27257147  0.20428331  0.24958536    -0.62570
O46         O  0.27190986  0.29423162  0.25096805    -0.70980
O47         O  0.22216517  0.29448620  0.25027472    -0.70530
O48         O  0.22286848  0.20431273  0.24990658    -0.61790
O49         O  0.22249016  0.24937311  0.29535453    -0.74290
O50         O  0.22237480  0.24890366  0.20494170    -0.73070
Cu51       Cu  0.27402296  0.24926936  0.25026553     1.04560
Cu52       Cu  0.22075721  0.24928214  0.25014224     1.04330
C53         C  0.24740780  0.24914902  0.19067599     0.93230
C54         C  0.24719280  0.24915803  0.31000886     0.92370
C55         C  0.24775984  0.18981388  0.24981212     0.84510
C56         C  0.24698159  0.30883722  0.25054247     0.90780
O57         O  0.49641754  0.47162104  0.45202081    -0.72970
O58         O  0.49929401  0.47254785  0.04261044    -0.73950
O59         O  0.45283581  0.47211659  0.99915406    -0.62570
O60         O  0.04334443  0.47217611  0.49570117    -0.70980
O61         O  0.04294590  0.02223263  0.49553894    -0.70530
O62         O  0.45231087  0.02182338  0.99941625    -0.61790
O63         O  0.49931390  0.02258864  0.04286367    -0.74290
O64         O  0.99605642  0.02158437  0.45234092    -0.73070
Cu65       Cu  0.49798566  0.47041339  0.99733663     1.04560
Cu66       Cu  0.49765191  0.02376555  0.49752890     1.04330
C67         C  0.49570546  0.99649249  0.43788647     0.93230
C68         C  0.49942717  0.99767720  0.05696711     0.92370
C69         C  0.43805663  0.99686108  0.99987911     0.84510
C70         C  0.05734608  0.99721733  0.49511679     0.90780
O71         O  0.99940919  0.22579449  0.04526561    -0.72970
O72         O  0.00185279  0.22550748  0.45450028    -0.73950
O73         O  0.04567128  0.22570940  0.50135257    -0.62570
O74         O  0.45571121  0.22494348  0.99895766    -0.70980
O75         O  0.45484956  0.27461547  0.99964835    -0.70530
O76         O  0.04539186  0.27569158  0.50062480    -0.61790
O77         O  0.00043054  0.27555059  0.45497702    -0.74290
O78         O  0.99958004  0.27560160  0.04514498    -0.73070
Cu79       Cu  0.00071262  0.22401656  0.49996038     1.04560
Cu80       Cu  0.00006835  0.27680685  0.00007170     1.04330
C81         C  0.99906325  0.25099066  0.05962363     0.93230
C82         C  0.00103019  0.25051152  0.44053043     0.92370
C83         C  0.05974674  0.25065216  0.50170398     0.84510
C84         C  0.44076625  0.24954659  0.99909551     0.90780
O85         O  0.24794872  0.47390466  0.45767194    -0.72970
O86         O  0.24766350  0.48057763  0.04863875    -0.73950
O87         O  0.20231456  0.47548624  0.00319930    -0.62570
O88         O  0.29252482  0.47800463  0.50335812    -0.70980
O89         O  0.29163065  0.02761764  0.50026753    -0.70530
O90         O  0.20044604  0.02540463  0.00061270    -0.61790
O91         O  0.24665550  0.03044769  0.04577802    -0.74290
O92         O  0.24637388  0.02385174  0.45533616    -0.73070
Cu93       Cu  0.24755267  0.47536148  0.00332505     1.04560
Cu94       Cu  0.24612477  0.02849930  0.50040457     1.04330
C95         C  0.24768989  0.49807952  0.44228617     0.93230
C96         C  0.24764844  0.50656751  0.06149094     0.92370
C97         C  0.18712911  0.49994181  0.00181904     0.84510
C98         C  0.30656676  0.50298788  0.50203722     0.90780
O99         O  0.25147838  0.22655788  0.45510634    -0.72970
O100        O  0.24925007  0.22815704  0.04572099    -0.73950
O101        O  0.20464357  0.22641222  0.99972831    -0.62570
O102        O  0.29530574  0.22859615  0.50105289    -0.70980
O103        O  0.29384690  0.27824567  0.50053869    -0.70530
O104        O  0.20357934  0.27637567  0.99943462    -0.61790
O105        O  0.24801335  0.27794130  0.04545314    -0.74290
O106        O  0.24971045  0.27655095  0.45480084    -0.73070
Cu107      Cu  0.25016075  0.22567004  0.00042760     1.04560
Cu108      Cu  0.24870660  0.27898943  0.50008340     1.04330
C109        C  0.25137183  0.25129662  0.44072313     0.93230
C110        C  0.24865759  0.25334293  0.06005583     0.92370
C111        C  0.18982519  0.25120654  0.99918795     0.84510
C112        C  0.30909979  0.25381208  0.50065108     0.90780
C113        C  0.39225164  0.27760145  0.00092100    -0.05810
C114        C  0.40702396  0.24949857  0.99886619     0.00120
C115        C  0.38933585  0.22327009  0.49669982    -0.08450
C116        C  0.35774022  0.22607409  0.49751369    -0.05830
C117        C  0.34286086  0.25410792  0.49994422     0.00110
C118        C  0.36065176  0.28053871  0.00122173    -0.08360
C119        C  0.34703984  0.31211251  0.00276011     0.62020
H120        H  0.40582124  0.29771174  0.00230386     0.12710
H121        H  0.34425938  0.20590415  0.49613745     0.12730
C122        C  0.40303892  0.19181329  0.49340135     0.62250
F123        F  0.36884172  0.33427903  0.00398320    -0.22910
F124        F  0.32940817  0.31533517  0.02840128    -0.20240
F125        F  0.32961617  0.31730799  0.47731207    -0.19920
F126        F  0.41964812  0.18468993  0.01867642    -0.19970
F127        F  0.42104455  0.19022507  0.46784880    -0.20290
F128        F  0.38129895  0.16973430  0.49042845    -0.22970
C129        C  0.14171732  0.23578809  0.02255688    -0.05810
C130        C  0.15647489  0.25085485  0.99917223     0.00120
C131        C  0.13929194  0.26543061  0.47656662    -0.08450
C132        C  0.10774887  0.26577295  0.47905464    -0.05830
C133        C  0.09296243  0.25056859  0.50218853     0.00110
C134        C  0.11002402  0.23490354  0.02433286    -0.08360
C135        C  0.09490050  0.21861735  0.05018640     0.62020
H136        H  0.15529487  0.22475404  0.03948643     0.12710
H137        H  0.09420371  0.27674687  0.46205103     0.12730
C138        C  0.15392027  0.27728442  0.44823617     0.62250
F139        F  0.11564821  0.20832324  0.07100383    -0.22910
F140        F  0.07926163  0.19401708  0.03916398    -0.20240
F141        F  0.07511269  0.23797387  0.06506498    -0.19920
F142        F  0.16890180  0.25360177  0.43416476    -0.19970
F143        F  0.17393825  0.30005106  0.45513210    -0.20290
F144        F  0.13298207  0.28863801  0.42816518    -0.22970
C145        C  0.35461992  0.47480127  0.49575372    -0.05810
C146        C  0.34028679  0.50253331  0.50218639     0.00120
C147        C  0.35835096  0.02803619  0.00946985    -0.08450
C148        C  0.38995661  0.02481441  0.00831620    -0.05830
C149        C  0.40430727  0.99715954  0.00134268     0.00110
C150        C  0.38615401  0.47121955  0.49589616    -0.08360
C151        C  0.39923089  0.43976237  0.49056271     0.62020
H152        H  0.34071493  0.45549046  0.49062830     0.12710
H153        H  0.40382963  0.04422014  0.01318131     0.12650
C154        C  0.34487873  0.05825093  0.01919291     0.62250
F155        F  0.37706626  0.41844277  0.48566548    -0.22910
F156        F  0.41539278  0.43097979  0.51565010    -0.20240
F157        F  0.41776261  0.43945733  0.46543287    -0.19920
F158        F  0.32522783  0.05429490  0.04313749    -0.19970
F159        F  0.32973509  0.07104957  0.99527109    -0.20290
F160        F  0.36673541  0.07839350  0.02860173    -0.22970
C161        C  0.13999254  0.50234653  0.47271116    -0.05810
C162        C  0.15389197  0.49855173  0.00084725     0.00120
C163        C  0.13579204  0.99302720  0.02668768    -0.08450
C164        C  0.10432639  0.99294110  0.02362186    -0.05830
C165        C  0.09052931  0.99724379  0.49574567     0.00110
C166        C  0.10837938  0.50147836  0.46966761    -0.08360
C167        C  0.09392811  0.50495735  0.43896358     0.62020
H168        H  0.15410777  0.50601489  0.45309525     0.12710
H169        H  0.09028746  0.98948505  0.04338869     0.12730
C170        C  0.14771873  0.98801026  0.05821448     0.62250
F171        F  0.11521685  0.00682815  0.41613352    -0.22910
F172        F  0.07662042  0.03094450  0.43893199    -0.20240
F173        F  0.07575717  0.48042898  0.43281025    -0.19920
F174        F  0.13769871  0.01140150  0.07664449    -0.19970
F175        F  0.17873566  0.48647028  0.05960887    -0.20290
F176        F  0.13646486  0.46128424  0.06916582    -0.22970
C177        C  0.25977105  0.27483099  0.14337279    -0.05810
C178        C  0.24748883  0.24966538  0.15743607     0.00120
C179        C  0.23594007  0.22569406  0.13978029    -0.08450
C180        C  0.23658135  0.22805776  0.10815314    -0.05830
C181        C  0.24840666  0.25351221  0.09373098     0.00110
C182        C  0.26042487  0.27738790  0.11172804    -0.08360
C183        C  0.27464925  0.30512287  0.09803531     0.62020
H184        H  0.26858538  0.29273549  0.15759328     0.12710
H185        H  0.22756230  0.20992224  0.09440091     0.12730
C186        C  0.22380140  0.19743060  0.15434148     0.62250
F187        F  0.28774355  0.32354425  0.11971882    -0.22910
F188        F  0.25292632  0.32196043  0.08343659    -0.20240
F189        F  0.29696748  0.29643396  0.07780657    -0.19920
F190        F  0.19824362  0.20441676  0.17102007    -0.19970
F191        F  0.24541164  0.18529614  0.17317015    -0.20290
F192        F  0.21623771  0.17565243  0.13307439    -0.22970
C193        C  0.27344930  0.23891442  0.35842506    -0.05810
C194        C  0.24719482  0.24914817  0.34372679     0.00120
C195        C  0.22252977  0.25993317  0.36161899    -0.08450
C196        C  0.22621141  0.26225165  0.39299152    -0.05830
C197        C  0.25157370  0.25075315  0.40745895     0.00110
C198        C  0.27578955  0.23889565  0.39015402    -0.08360
C199        C  0.30433154  0.22751691  0.40515782     0.62020
H200        H  0.29209406  0.23044861  0.34487006     0.12710
H201        H  0.20896050  0.27280788  0.40671399     0.12730
C202        C  0.19226935  0.26886357  0.34837013     0.62250
F203        F  0.32614828  0.21914532  0.38418365    -0.22910
F204        F  0.29788966  0.20268299  0.42248548    -0.20240
F205        F  0.31613784  0.24996207  0.42348362    -0.19920
F206        F  0.17944038  0.24423922  0.33403228    -0.19970
F207        F  0.19617038  0.29183512  0.32814921    -0.20290
F208        F  0.17207054  0.27892231  0.37024497    -0.22970
C209        C  0.27692699  0.49562838  0.10703122    -0.05810
C210        C  0.25088421  0.00868420  0.09466634     0.00120
C211        C  0.22966251  0.02296896  0.11426010    -0.08450
C212        C  0.23382768  0.02064041  0.14552386    -0.05830
C213        C  0.25886639  0.00594029  0.15810397     0.00110
C214        C  0.28197852  0.49506363  0.13844720    -0.08360
C215        C  0.31172567  0.48299537  0.15012004     0.62020
H216        H  0.29357290  0.48606577  0.09164260     0.12710
H217        H  0.21694694  0.03058524  0.16045781     0.12730
C218        C  0.20191070  0.04044724  0.10453114     0.62250
F219        F  0.33083249  0.47382695  0.12691422    -0.22910
F220        F  0.30660672  0.45853639  0.16825061    -0.20240
F221        F  0.32625671  0.00529263  0.16649250    -0.19920
F222        F  0.17671885  0.52770534  0.11751104    -0.19970
F223        F  0.19776087  0.04112038  0.07372952    -0.20290
F224        F  0.20417015  0.06985838  0.11494044    -0.22970
C225        C  0.22213971  0.49276632  0.39317567    -0.05810
C226        C  0.24903538  0.49651178  0.40904543     0.00120
C227        C  0.27635876  0.00020835  0.39317400    -0.08450
C228        C  0.27584879  0.00008392  0.36140577    -0.05830
C229        C  0.24885917  0.99673862  0.34495559     0.00110
C230        C  0.22128872  0.49292183  0.36133791    -0.08360
C231        C  0.19088957  0.48913742  0.34597433     0.62020
H232        H  0.20159677  0.49024140  0.40617507     0.12710
H233        H  0.29678604  0.00303206  0.34922358     0.12730
C234        C  0.30588906  0.00429296  0.40994990     0.62250
F235        F  0.16781735  0.48461923  0.36654524    -0.22910
F236        F  0.19174282  0.46437197  0.32668596    -0.20240
F237        F  0.18381625  0.01481142  0.33002717    -0.19920
F238        F  0.31103108  0.47976225  0.42821346    -0.19970
F239        F  0.30448414  0.03015156  0.42767769    -0.20290
F240        F  0.33014314  0.00682411  0.39040513    -0.22970
C241        C  0.22600520  0.39279775  0.25484385    -0.05810
C242        C  0.25400079  0.40618605  0.24882534     0.00120
C243        C  0.27936119  0.38727183  0.24275042    -0.08450
C244        C  0.27557717  0.35589603  0.24353468    -0.05830
C245        C  0.24763900  0.34247137  0.24983982     0.00110
C246        C  0.22211125  0.36141568  0.25522877    -0.08360
C247        C  0.19080555  0.34925423  0.26167448     0.62020
H248        H  0.20680415  0.40730802  0.25946251     0.12710
H249        H  0.29484994  0.34144690  0.23903819     0.12730
C250        C  0.31030274  0.39952716  0.23490100     0.62250
F251        F  0.16998233  0.37197349  0.26762302    -0.22910
F252        F  0.19174085  0.33114159  0.28669277    -0.20240
F253        F  0.18056561  0.33295867  0.23698557    -0.19920
F254        F  0.32209426  0.41489146  0.25946976    -0.19970
F255        F  0.30795542  0.41856923  0.21064363    -0.20290
F256        F  0.33057312  0.37690986  0.22689612    -0.22970
C257        C  0.27700790  0.14207828  0.24969824    -0.05810
C258        C  0.24847486  0.15616951  0.25027276     0.00120
C259        C  0.22228915  0.13786110  0.25167155    -0.08450
C260        C  0.22602647  0.10645761  0.25291793    -0.05830
C261        C  0.25454868  0.09236794  0.25245160     0.00110
C262        C  0.28072089  0.11063405  0.25062515    -0.08360
C263        C  0.31258616  0.09765233  0.24941396     0.62020
H264        H  0.29683884  0.15604429  0.24848809     0.12710
H265        H  0.20619707  0.09250285  0.25424413     0.12730
C266        C  0.19034272  0.15070083  0.25184897     0.62250
F267        F  0.33424899  0.11983193  0.24709184    -0.22910
F268        F  0.31574079  0.07879112  0.22446131    -0.20240
F269        F  0.31846336  0.08190143  0.27551300    -0.19920
F270        F  0.18544878  0.16692180  0.22584226    -0.19970
F271        F  0.18609294  0.16905272  0.27701651    -0.20290
F272        F  0.16868504  0.12840353  0.25281883    -0.22970
C273        C  0.48583915  0.27251144  0.14261109    -0.05810
C274        C  0.99921111  0.24786958  0.15687253     0.00120
C275        C  0.01203940  0.22419176  0.13932523    -0.08450
C276        C  0.01126954  0.22621581  0.10772603    -0.05830
C277        C  0.99865328  0.25127188  0.09319719     0.00110
C278        C  0.48579972  0.27509669  0.11097345    -0.08360
C279        C  0.47200629  0.30313613  0.09708993     0.62020
H280        H  0.47606370  0.29020382  0.15666525     0.12710
H281        H  0.02110192  0.20826284  0.09405491     0.12730
C282        C  0.02557205  0.19644763  0.15385644     0.62250
F283        F  0.45835992  0.32166429  0.11858779    -0.22910
F284        F  0.45028162  0.29504989  0.07621748    -0.20240
F285        F  0.99426703  0.31969821  0.08315938    -0.19920
F286        F  0.50466824  0.18393820  0.17306853    -0.19970
F287        F  0.05101423  0.20419802  0.17002993    -0.20290
F288        F  0.03379251  0.17468732  0.13264547    -0.22970
C289        C  0.02851904  0.24533934  0.39245854    -0.05810
C290        C  0.00115521  0.25060226  0.40732605     0.00120
C291        C  0.47487548  0.25663559  0.39056701    -0.08450
C292        C  0.47673177  0.25623742  0.35885982    -0.05830
C293        C  0.00416349  0.25084079  0.34340812     0.00110
C294        C  0.03087193  0.24593281  0.36074611    -0.08360
C295        C  0.06192450  0.24160302  0.34660020     0.62020
H296        H  0.04826775  0.24128137  0.40618186     0.12710
H297        H  0.45652841  0.26048632  0.34593048     0.12730
C298        C  0.44501706  0.26325723  0.40628065     0.62250
F299        F  0.08408741  0.23707596  0.36805222    -0.22910
F300        F  0.06964617  0.26696713  0.33057661    -0.20240
F301        F  0.06199227  0.21667602  0.32765280    -0.19920
F302        F  0.44748319  0.28903367  0.42395595    -0.19970
F303        F  0.43735081  0.23935768  0.42441987    -0.20290
F304        F  0.42187801  0.26771962  0.38588900    -0.22970
C305        C  0.47665990  0.48945707  0.13900092    -0.05810
C306        C  0.50299556  0.99878069  0.15407685     0.00120
C307        C  0.02820856  0.00832418  0.13655158    -0.08450
C308        C  0.02591128  0.00776057  0.10481732    -0.05830
C309        C  0.49979729  0.99794672  0.09021621     0.00110
C310        C  0.47460310  0.48894091  0.10733665    -0.08360
C311        C  0.44542483  0.47960430  0.09210791     0.62020
H312        H  0.45749703  0.48232183  0.15223408     0.12710
H313        H  0.04473452  0.01465734  0.09093107     0.12730
C314        C  0.05739912  0.01938355  0.15068088     0.62250
F315        F  0.42297051  0.47343907  0.11287863    -0.22910
F316        F  0.45026570  0.45398102  0.07463516    -0.20240
F317        F  0.43526676  0.00260230  0.07389560    -0.19920
F318        F  0.07143856  0.49603999  0.16564496    -0.19970
F319        F  0.05140694  0.04290288  0.17066281    -0.20290
F320        F  0.07746330  0.02980568  0.12924580    -0.22970
C321        C  0.01690918  0.01540159  0.39055355    -0.05810
C322        C  0.49595397  0.99665147  0.40451492     0.00120
C323        C  0.47588167  0.47946121  0.38654859    -0.08450
C324        C  0.47765037  0.48179133  0.35492911    -0.05830
C325        C  0.49939558  0.49978341  0.34088214     0.00110
C326        C  0.01953406  0.01687848  0.35901979    -0.08360
C327        C  0.04320846  0.03726195  0.34549721     0.62020
H328        H  0.03171612  0.02861069  0.40473481     0.12710
H329        H  0.46226581  0.46909896  0.34082554     0.12730
C330        C  0.45201922  0.45967988  0.40059919     0.62250
F331        F  0.05717736  0.05497638  0.36721552    -0.22910
F332        F  0.02980354  0.05624306  0.32505701    -0.20240
F333        F  0.06522369  0.02011289  0.33112535    -0.19920
F334        F  0.43456128  0.47675576  0.42039070    -0.19970
F335        F  0.46558761  0.43632930  0.41594091    -0.20290
F336        F  0.43312034  0.44715395  0.37908910    -0.22970
C337        C  0.01889837  0.39048135  0.22699387    -0.05810
C338        C  0.50290268  0.40622895  0.24963778     0.00120
C339        C  0.48798725  0.38993817  0.27255405    -0.08450
C340        C  0.48869576  0.35821593  0.27129618    -0.05830
C341        C  0.50445087  0.34241557  0.24850315     0.00110
C342        C  0.01988555  0.35872209  0.22590927    -0.08360
C343        C  0.03634048  0.34275559  0.20013026     0.62020
H344        H  0.03030508  0.40336891  0.20983470     0.12710
H345        H  0.47721405  0.34538336  0.28845038     0.12730
C346        C  0.47269625  0.40594024  0.29903084     0.62250
F347        F  0.04682313  0.36280283  0.17889244    -0.22910
F348        F  0.01703259  0.32298661  0.18571607    -0.20240
F349        F  0.06082208  0.32699205  0.21115652    -0.19920
F350        F  0.44820057  0.42242314  0.28912275    -0.19970
F351        F  0.49303286  0.42503439  0.31293451    -0.20290
F352        F  0.46250395  0.38588315  0.32040186    -0.22970
C353        C  0.01149432  0.10774934  0.27149435    -0.05810
C354        C  0.49815130  0.09247679  0.24717247     0.00120
C355        C  0.48439547  0.10925546  0.22388364    -0.08450
C356        C  0.48398964  0.14099687  0.22625172    -0.05830
C357        C  0.49801795  0.15621237  0.25033242     0.00110
C358        C  0.01142096  0.13936157  0.27370141    -0.08360
C359        C  0.02519987  0.15468444  0.30110099     0.62020
H360        H  0.02220282  0.09467509  0.28881705     0.12710
H361        H  0.47323268  0.15421165  0.20893835     0.12730
C362        C  0.47174233  0.09377796  0.19595453     0.62250
F363        F  0.03269363  0.13426451  0.32327022    -0.22910
F364        F  0.50493362  0.17525575  0.31350625    -0.20240
F365        F  0.05113340  0.16935289  0.29251588    -0.19920
F366        F  0.44723504  0.07641356  0.20369637    -0.19970
F367        F  0.99369183  0.07552216  0.18285183    -0.20290
F368        F  0.46244549  0.11433506  0.17460319    -0.22970
O369        O  0.02507272  0.50029308  0.79329500    -0.72970
O370        O  0.02692037  0.99926386  0.70289486    -0.73950
O371        O  0.02457984  0.04535081  0.74814151    -0.62570
O372        O  0.02707623  0.45424605  0.74817609    -0.70980
O373        O  0.47709769  0.45360319  0.74799646    -0.70530
O374        O  0.47462939  0.04420688  0.74654231    -0.61790
O375        O  0.47718445  0.99801160  0.70181147    -0.74290
O376        O  0.47514995  0.49977928  0.79271785    -0.73070
Cu377      Cu  0.02763753  0.99982867  0.74813568     1.04560
Cu378      Cu  0.47428237  0.49885784  0.74721695     1.04330
C379        C  0.99994093  0.50022150  0.80738427     0.93230
C380        C  0.00247794  0.99874703  0.68784035     0.92370
C381        C  0.99916214  0.05908336  0.74699735     0.84510
C382        C  0.00233610  0.43962106  0.74868112     0.90780
O383        O  0.02499535  0.24654832  0.70377162    -0.72970
O384        O  0.02759464  0.24983378  0.79405809    -0.73950
O385        O  0.02442711  0.20291510  0.74999437    -0.62570
O386        O  0.02792044  0.29357239  0.74759529    -0.70980
O387        O  0.47807127  0.29576803  0.75085853    -0.70530
O388        O  0.47444570  0.20486983  0.74989081    -0.61790
O389        O  0.47790028  0.25048580  0.79594975    -0.74290
O390        O  0.47508432  0.25031883  0.70505874    -0.73070
Cu391      Cu  0.02792703  0.24813929  0.74881266     1.04560
Cu392      Cu  0.47460099  0.25044357  0.75051800     1.04330
C393        C  0.49974492  0.24802413  0.69016283     0.93230
C394        C  0.50332458  0.25033907  0.80956202     0.92370
C395        C  0.49897452  0.18959379  0.75013541     0.84510
C396        C  0.50350579  0.30899016  0.74881292     0.90780
O397        O  0.27682156  0.99770065  0.79816057    -0.72970
O398        O  0.28284359  0.00070047  0.70698391    -0.73950
O399        O  0.27992793  0.04407768  0.75432465    -0.62570
O400        O  0.27986032  0.45386470  0.75089332    -0.70980
O401        O  0.23019920  0.45462555  0.74802250    -0.70530
O402        O  0.23031864  0.04440809  0.75145464    -0.61790
O403        O  0.23305201  0.00114337  0.70494066    -0.74290
O404        O  0.22725466  0.99833669  0.79494951    -0.73070
Cu405      Cu  0.28163818  0.99900318  0.75271800     1.04560
Cu406      Cu  0.22856524  0.99957318  0.74975971     1.04330
C407        C  0.25095003  0.99757184  0.81111318     0.93230
C408        C  0.25858586  0.00212352  0.69155184     0.92370
C409        C  0.25516715  0.05872520  0.75288614     0.84510
C410        C  0.25495017  0.43978492  0.74906467     0.90780
O411        O  0.27240622  0.24958082  0.70489501    -0.72970
O412        O  0.27225426  0.24898163  0.79566000    -0.73950
O413        O  0.27257124  0.20428024  0.74958148    -0.62570
O414        O  0.27190508  0.29422625  0.75097501    -0.70980
O415        O  0.22216040  0.29448180  0.75028341    -0.70530
O416        O  0.22286825  0.20430742  0.74990311    -0.61790
O417        O  0.22248766  0.24936350  0.79535685    -0.74290
O418        O  0.22237068  0.24890299  0.70494384    -0.73070
Cu419      Cu  0.27401995  0.24926529  0.75026672     1.04560
Cu420      Cu  0.22075421  0.24927703  0.75014461     1.04330
C421        C  0.24740320  0.24914833  0.69067728     0.93230
C422        C  0.24719059  0.24914919  0.81001067     0.92370
C423        C  0.24776042  0.18980974  0.74980572     0.84510
C424        C  0.24697713  0.30883240  0.75055385     0.90780
O425        O  0.49635893  0.47168720  0.95202739    -0.72970
O426        O  0.49935380  0.47247898  0.54260991    -0.73950
O427        O  0.45290022  0.47202325  0.49915027    -0.62570
O428        O  0.04328976  0.47223593  0.99570649    -0.70980
O429        O  0.04289851  0.02229225  0.99554059    -0.70530
O430        O  0.45235209  0.02172995  0.49941403    -0.61790
O431        O  0.49935667  0.02251998  0.54285911    -0.74290
O432        O  0.99601212  0.02165011  0.95233890    -0.73070
Cu433      Cu  0.49804599  0.47034156  0.49733257     1.04560
Cu434      Cu  0.49760850  0.02383713  0.99753039     1.04330
C435        C  0.49565472  0.99655539  0.93788830     0.93230
C436        C  0.49947736  0.99761039  0.55696452     0.92370
C437        C  0.43810976  0.99675989  0.49987584     0.84510
C438        C  0.05729537  0.99727583  0.99512084     0.90780
O439        O  0.99940280  0.22630716  0.54524643    -0.72970
O440        O  0.00180935  0.22491360  0.95448086    -0.73950
O441        O  0.04568768  0.22513259  0.00133194    -0.62570
O442        O  0.45575985  0.22546970  0.49892809    -0.70980
O443        O  0.45481034  0.27513875  0.49968754    -0.70530
O444        O  0.04537635  0.27511562  0.00056422    -0.61790
O445        O  0.00043983  0.27495806  0.95496029    -0.74290
O446        O  0.99955545  0.27611729  0.54522128    -0.73070
Cu447      Cu  0.00069454  0.22345069  0.99996366     1.04560
Cu448      Cu  0.00005295  0.27737195  0.50012113     1.04330
C449        C  0.99904859  0.25147297  0.55965318     0.93230
C450        C  0.00100779  0.24992417  0.94051402     0.92370
C451        C  0.05974683  0.25009119  0.00165275     0.84510
C452        C  0.44077176  0.25004064  0.49909542     0.90780
O453        O  0.24789851  0.47407550  0.95767819    -0.72970
O454        O  0.24771418  0.48041850  0.54863708    -0.73950
O455        O  0.20236111  0.47533026  0.50319446    -0.62570
O456        O  0.29247026  0.47817758  0.00336166    -0.70980
O457        O  0.29158041  0.02779131  0.00027967    -0.70530
O458        O  0.20050435  0.02524879  0.50060397    -0.61790
O459        O  0.24671241  0.03028782  0.54576438    -0.74290
O460        O  0.24632146  0.02402258  0.95534327    -0.73070
Cu461      Cu  0.24760293  0.47519525  0.50332117     1.04560
Cu462      Cu  0.24606960  0.02866582  0.00041522     1.04330
C463        C  0.24763949  0.49825019  0.94229278     0.93230
C464        C  0.24770101  0.50641176  0.56148308     0.92370
C465        C  0.18718142  0.49978998  0.50181215     0.84510
C466        C  0.30651467  0.50315915  0.00204318     0.90780
O467        O  0.25146479  0.22655255  0.95510655    -0.72970
O468        O  0.24925895  0.22815866  0.54571878    -0.73950
O469        O  0.20463307  0.22642664  0.49972105    -0.62570
O470        O  0.29526893  0.22855409  0.00105375    -0.70980
O471        O  0.29389152  0.27820677  0.00053340    -0.70530
O472        O  0.20359028  0.27639051  0.49942589    -0.61790
O473        O  0.24799089  0.27794232  0.54545427    -0.74290
O474        O  0.24972122  0.27654647  0.95480327    -0.73070
Cu475      Cu  0.25017343  0.22568026  0.50042541     1.04560
Cu476      Cu  0.24872332  0.27898016  0.00008416     1.04330
C477        C  0.25137088  0.25129263  0.94072452     0.93230
C478        C  0.24864978  0.25334270  0.56005551     0.92370
C479        C  0.18982625  0.25123213  0.49917219     0.84510
C480        C  0.30910450  0.25374275  0.00064733     0.90780
C481        C  0.39216821  0.27794241  0.50090265    -0.05810
C482        C  0.40703084  0.24989095  0.49885814     0.00120
C483        C  0.38924187  0.22294304  0.99668890    -0.08450
C484        C  0.35765636  0.22585658  0.99749815    -0.05830
C485        C  0.34286689  0.25394094  0.99993804     0.00110
C486        C  0.36055894  0.28076929  0.50121565    -0.08360
C487        C  0.34684386  0.31230040  0.50275629     0.62020
H488        H  0.40567427  0.29809692  0.50226963     0.12710
H489        H  0.34411272  0.20573015  0.99610922     0.12730
C490        C  0.40284093  0.19144589  0.99336894     0.62250
F491        F  0.36857085  0.33453918  0.50397989    -0.22910
F492        F  0.32920655  0.31546597  0.52839995    -0.20240
F493        F  0.32983070  0.31717407  0.97731498    -0.19920
F494        F  0.41988408  0.18513571  0.51870577    -0.19970
F495        F  0.42085863  0.18982406  0.96782697    -0.20290
F496        F  0.38102676  0.16944342  0.99036111    -0.22970
C497        C  0.14166730  0.23590832  0.52250688    -0.05810
C498        C  0.15647683  0.25094198  0.49913806     0.00120
C499        C  0.13923885  0.26522205  0.97656191    -0.08450
C500        C  0.10769098  0.26533465  0.97897836    -0.05830
C501        C  0.09296140  0.25008696  0.00212050     0.00110
C502        C  0.10997080  0.23518747  0.52431201    -0.08360
C503        C  0.09479362  0.21882018  0.55008356     0.62020
H504        H  0.15520575  0.22476144  0.53939291     0.12710
H505        H  0.09410395  0.27619477  0.96193435     0.12730
C506        C  0.15383658  0.27721003  0.94827568     0.62250
F507        F  0.11550678  0.20836658  0.57085451    -0.22910
F508        F  0.07909599  0.19431109  0.53893906    -0.20240
F509        F  0.07505231  0.23815635  0.56505069    -0.19920
F510        F  0.16891766  0.25362338  0.93415293    -0.19970
F511        F  0.17375938  0.30003836  0.95524855    -0.20290
F512        F  0.13286812  0.28854190  0.92822314    -0.22970
C513        C  0.35455424  0.47495382  0.99575297    -0.05810
C514        C  0.34023523  0.50269330  0.00218652     0.00120
C515        C  0.35838877  0.02788587  0.50947182    -0.08450
C516        C  0.38999533  0.02468272  0.50831677    -0.05830
C517        C  0.40436086  0.99703742  0.50134010     0.00110
C518        C  0.38608571  0.47135316  0.99589846    -0.08360
C519        C  0.39914381  0.43988776  0.99057023     0.62020
H520        H  0.34063977  0.45565038  0.99062620     0.12710
H521        H  0.40385748  0.04409615  0.51318243     0.12650
C522        C  0.34490104  0.05809272  0.51919861     0.62250
F523        F  0.37696656  0.41858114  0.98567376    -0.22910
F524        F  0.41529774  0.43109912  0.01566047    -0.20240
F525        F  0.41767789  0.43956788  0.96544227    -0.19920
F526        F  0.32524708  0.05412291  0.54313822    -0.19970
F527        F  0.32975738  0.07089011  0.49527606    -0.20290
F528        F  0.36674651  0.07824304  0.52861681    -0.22970
C529        C  0.13993807  0.50246988  0.97271899    -0.05810
C530        C  0.15394378  0.49841418  0.50083890     0.00120
C531        C  0.13583905  0.99291227  0.52668094    -0.08450
C532        C  0.10437321  0.99286471  0.52361779    -0.05830
C533        C  0.09047921  0.99730635  0.99574883     0.00110
C534        C  0.10832634  0.50156706  0.96967333    -0.08360
C535        C  0.09387314  0.50503845  0.93896945     0.62020
H536        H  0.15405027  0.50615367  0.95310409     0.12710
H537        H  0.09033143  0.98942233  0.54338529     0.12730
C538        C  0.14776077  0.98787849  0.55820647     0.62250
F539        F  0.11516064  0.00693613  0.91614101    -0.22910
F540        F  0.07653971  0.03100850  0.93894305    -0.20240
F541        F  0.07572731  0.48049286  0.93280976    -0.19920
F542        F  0.13776745  0.01127922  0.57663840    -0.19970
F543        F  0.17877629  0.48630173  0.55959971    -0.20290
F544        F  0.13647532  0.46116502  0.56915587    -0.22970
C545        C  0.25976311  0.27482909  0.64337265    -0.05810
C546        C  0.24748301  0.24966334  0.65743698     0.00120
C547        C  0.23593592  0.22569040  0.63978184    -0.08450
C548        C  0.23657675  0.22805303  0.60815391    -0.05830
C549        C  0.24839868  0.25350901  0.59373113     0.00110
C550        C  0.26041606  0.27738482  0.61172795    -0.08360
C551        C  0.27464346  0.30511664  0.59803361     0.62020
H552        H  0.26857732  0.29273435  0.65759221     0.12710
H553        H  0.22755986  0.20991633  0.59440174     0.12730
C554        C  0.22379867  0.19742732  0.65434511     0.62250
F555        F  0.28773807  0.32353922  0.61971569    -0.22910
F556        F  0.25292362  0.32195469  0.58343097    -0.20240
F557        F  0.29696206  0.29642133  0.57780840    -0.19920
F558        F  0.19824100  0.20441370  0.67102385    -0.19970
F559        F  0.24540959  0.18529482  0.67317436    -0.20290
F560        F  0.21623533  0.17564760  0.63307958    -0.22970
C561        C  0.27344833  0.23890910  0.85842696    -0.05810
C562        C  0.24719332  0.24914132  0.84372859     0.00120
C563        C  0.22252986  0.25993049  0.86162059    -0.08450
C564        C  0.22621416  0.26225495  0.89299244    -0.05830
C565        C  0.25157416  0.25075213  0.90746039     0.00110
C566        C  0.27578947  0.23889328  0.89015589    -0.08360
C567        C  0.30433197  0.22751670  0.90516018     0.62020
H568        H  0.29209265  0.23044198  0.84487215     0.12710
H569        H  0.20896820  0.27282123  0.90671364     0.12730
C570        C  0.19226901  0.26886044  0.84837226     0.62250
F571        F  0.32614770  0.21914189  0.88418619    -0.22910
F572        F  0.29789042  0.20268566  0.92249197    -0.20240
F573        F  0.31613932  0.24996444  0.92348216    -0.19920
F574        F  0.17943881  0.24423550  0.83403647    -0.19970
F575        F  0.19617014  0.29183032  0.82814954    -0.20290
F576        F  0.17207110  0.27892100  0.87024735    -0.22970
C577        C  0.27697128  0.49550110  0.60703850    -0.05810
C578        C  0.25092807  0.00854180  0.59465864     0.00120
C579        C  0.22970649  0.02284792  0.61423708    -0.08450
C580        C  0.23386788  0.02054928  0.64550348    -0.05830
C581        C  0.25890571  0.00586352  0.65810067     0.00110
C582        C  0.28202289  0.49497472  0.63845615    -0.08360
C583        C  0.31177896  0.48294347  0.65014311     0.62020
H584        H  0.29362048  0.48592715  0.59166043     0.12710
H585        H  0.21698580  0.03050902  0.66042610     0.12730
C586        C  0.20196120  0.04032553  0.60448936     0.62250
F587        F  0.33089564  0.47376998  0.62694736    -0.22910
F588        F  0.30668028  0.45849810  0.66829665    -0.20240
F589        F  0.32628862  0.00526912  0.66649602    -0.19920
F590        F  0.17676570  0.52761555  0.61749421    -0.19970
F591        F  0.19780389  0.04095642  0.57368744    -0.20290
F592        F  0.20423854  0.06974948  0.61485621    -0.22970
C593        C  0.22209763  0.49292375  0.89317835    -0.05810
C594        C  0.24898983  0.49667715  0.90905217     0.00120
C595        C  0.27631915  0.00034799  0.89318449    -0.08450
C596        C  0.27581893  0.00018839  0.86141571    -0.05830
C597        C  0.24883400  0.99682807  0.84496070     0.00110
C598        C  0.22125697  0.49304038  0.86133950    -0.08360
C599        C  0.19086220  0.48924188  0.84597078     0.62020
H600        H  0.20155039  0.49041617  0.90617470     0.12710
H601        H  0.29676094  0.00311645  0.84923638     0.12730
C602        C  0.30584596  0.00443866  0.90996491     0.62250
F603        F  0.16778196  0.48475643  0.86654060    -0.22910
F604        F  0.19171682  0.46445052  0.82671616    -0.20240
F605        F  0.18379975  0.01489506  0.82998593    -0.19920
F606        F  0.31097566  0.47992282  0.92825157    -0.19970
F607        F  0.30444341  0.03031286  0.92766982    -0.20290
F608        F  0.33010633  0.00694547  0.89042427    -0.22970
C609        C  0.22600694  0.39279409  0.75487594    -0.05810
C610        C  0.25400506  0.40618125  0.74886609     0.00120
C611        C  0.27936479  0.38726605  0.74279208    -0.08450
C612        C  0.27557778  0.35589071  0.74356809    -0.05830
C613        C  0.24763661  0.34246678  0.74986131     0.00110
C614        C  0.22210931  0.36141200  0.75524911    -0.08360
C615        C  0.19079981  0.34925147  0.76167803     0.62020
H616        H  0.20680635  0.40730527  0.75949374     0.12710
H617        H  0.29485051  0.34144135  0.73907244     0.12730
C618        C  0.31030811  0.39951993  0.73494834     0.62250
F619        F  0.16997600  0.37197113  0.76762271    -0.22910
F620        F  0.19172213  0.33113255  0.78669213    -0.20240
F621        F  0.18056959  0.33296261  0.73698056    -0.19920
F622        F  0.32209684  0.41488258  0.75951942    -0.19970
F623        F  0.30796460  0.41856300  0.71069204    -0.20290
F624        F  0.33057864  0.37690241  0.72694449    -0.22970
C625        C  0.27701178  0.14207614  0.74968158    -0.05810
C626        C  0.24847767  0.15616544  0.75025872     0.00120
C627        C  0.22229313  0.13785520  0.75165257    -0.08450
C628        C  0.22603241  0.10645155  0.75288839    -0.05830
C629        C  0.25455564  0.09236390  0.75242130     0.00110
C630        C  0.28072682  0.11063196  0.75060280    -0.08360
C631        C  0.31259305  0.09765236  0.74939662     0.62020
H632        H  0.29684196  0.15604365  0.74847613     0.12710
H633        H  0.20620378  0.09249526  0.75420986     0.12730
C634        C  0.19034600  0.15069326  0.75183789     0.62250
F635        F  0.33425474  0.11983347  0.74707815    -0.22910
F636        F  0.31575285  0.07879121  0.72444458    -0.20240
F637        F  0.31846703  0.08190187  0.77549666    -0.19920
F638        F  0.18544716  0.16692057  0.72583618    -0.19970
F639        F  0.18609910  0.16903866  0.77701065    -0.20290
F640        F  0.16868967  0.12839456  0.75280562    -0.22970
C641        C  0.48577731  0.27269191  0.64270972    -0.05810
C642        C  0.99916841  0.24800994  0.65688780     0.00120
C643        C  0.01201032  0.22439891  0.63926311    -0.08450
C644        C  0.01127031  0.22655016  0.60767326    -0.05830
C645        C  0.99864242  0.25165346  0.59322804     0.00110
C646        C  0.48574368  0.27539162  0.61108311    -0.08360
C647        C  0.47189541  0.30344866  0.59729364     0.62020
H648        H  0.47597622  0.29032388  0.65682242     0.12710
H649        H  0.02112508  0.20865324  0.59394428     0.12730
C650        C  0.02551705  0.19658927  0.65369798     0.62250
F651        F  0.45820188  0.32187295  0.61885144    -0.22910
F652        F  0.45019537  0.29538482  0.57638754    -0.20240
F653        F  0.99412389  0.32010437  0.58342664    -0.19920
F654        F  0.50459945  0.18402406  0.67286118    -0.19970
F655        F  0.05096254  0.20426064  0.66990369    -0.20290
F656        F  0.03372275  0.17489815  0.63240971    -0.22970
C657        C  0.02848953  0.24484348  0.89243408    -0.05810
C658        C  0.00112558  0.25006710  0.90731389     0.00120
C659        C  0.47488307  0.25633181  0.89058046    -0.08450
C660        C  0.47674947  0.25608467  0.85887569    -0.05830
C661        C  0.00417552  0.25070014  0.84341082     0.00110
C662        C  0.03087199  0.24568239  0.86073335    -0.08360
C663        C  0.06194650  0.24153247  0.84658743     0.62020
H664        H  0.04822370  0.24066903  0.90614308     0.12710
H665        H  0.45656613  0.26046960  0.84596048     0.12730
C666        C  0.44506386  0.26308983  0.90631771     0.62250
F667        F  0.08411717  0.23701119  0.86803258    -0.22910
F668        F  0.06957351  0.26699600  0.83067453    -0.20240
F669        F  0.06212379  0.21668423  0.82753692    -0.19920
F670        F  0.44768093  0.28882330  0.92403302    -0.19970
F671        F  0.43726541  0.23920558  0.92442104    -0.20290
F672        F  0.42194369  0.26772092  0.88594355    -0.22970
C673        C  0.47668410  0.48943357  0.63899592    -0.05810
C674        C  0.50301675  0.99875996  0.65407556     0.00120
C675        C  0.02823604  0.00829274  0.63655320    -0.08450
C676        C  0.02595123  0.00770688  0.60481811    -0.05830
C677        C  0.49984085  0.99788809  0.59021372     0.00110
C678        C  0.47463711  0.48890287  0.60733094    -0.08360
C679        C  0.44545837  0.47957663  0.59209705     0.62020
H680        H  0.45751491  0.48231027  0.65222663     0.12710
H681        H  0.04478005  0.01459361  0.59093420     0.12730
C682        C  0.05741903  0.01936724  0.65068642     0.62250
F683        F  0.42299650  0.47342416  0.61286361    -0.22910
F684        F  0.45029224  0.45394936  0.57462840    -0.20240
F685        F  0.43531479  0.00257677  0.57387945    -0.19920
F686        F  0.07146077  0.49603520  0.66566602    -0.19970
F687        F  0.05141376  0.04289424  0.67065553    -0.20290
F688        F  0.07748639  0.02978555  0.62925240    -0.22970
C689        C  0.01686614  0.01545080  0.89055291    -0.05810
C690        C  0.49590952  0.99670377  0.90451588     0.00120
C691        C  0.47585241  0.47949474  0.88654917    -0.08450
C692        C  0.47763281  0.48181006  0.85492889    -0.05830
C693        C  0.49937852  0.49980095  0.84088167     0.00110
C694        C  0.01950756  0.01690721  0.85901933    -0.08360
C695        C  0.04319126  0.03727909  0.84549627     0.62020
H696        H  0.03166326  0.02867175  0.90473311     0.12710
H697        H  0.46225748  0.46910673  0.84082494     0.12730
C698        C  0.45199267  0.45970916  0.90059845     0.62250
F699        F  0.05715477  0.05500217  0.86721104    -0.22910
F700        F  0.02979817  0.05625121  0.82504090    -0.20240
F701        F  0.06520890  0.02011848  0.83114199    -0.19920
F702        F  0.43451994  0.47678662  0.92037511    -0.19970
F703        F  0.46556368  0.43637032  0.91595563    -0.20290
F704        F  0.43310772  0.44716598  0.87908588    -0.22970
C705        C  0.01890007  0.39048233  0.72699992    -0.05810
C706        C  0.50290398  0.40623092  0.74964266     0.00120
C707        C  0.48798741  0.38994147  0.77255884    -0.08450
C708        C  0.48869568  0.35821964  0.77130286    -0.05830
C709        C  0.50445202  0.34241770  0.74851237     0.00110
C710        C  0.01988767  0.35872301  0.72591726    -0.08360
C711        C  0.03634365  0.34275677  0.70013866     0.62020
H712        H  0.03030711  0.40336927  0.70984046     0.12710
H713        H  0.47721301  0.34538836  0.78845738     0.12730
C714        C  0.47269526  0.40594424  0.79903414     0.62250
F715        F  0.04682609  0.36280369  0.67890019    -0.22910
F716        F  0.01703660  0.32298830  0.68572457    -0.20240
F717        F  0.06082511  0.32699314  0.71116475    -0.19920
F718        F  0.44820043  0.42242702  0.78912399    -0.19970
F719        F  0.49303140  0.42503834  0.81293853    -0.20290
F720        F  0.46250145  0.38588765  0.82040496    -0.22970
C721        C  0.01149062  0.10775052  0.77149080    -0.05810
C722        C  0.49815151  0.09247962  0.74716616     0.00120
C723        C  0.48440445  0.10926080  0.72387354    -0.08450
C724        C  0.48401037  0.14100301  0.72623682    -0.05830
C725        C  0.49802241  0.15621535  0.75032853     0.00110
C726        C  0.01141718  0.13936215  0.77370111    -0.08360
C727        C  0.02519743  0.15468091  0.80110227     0.62020
H728        H  0.02219674  0.09467499  0.78881390     0.12710
H729        H  0.47327838  0.15422220  0.70891051     0.12730
C730        C  0.47174624  0.09378414  0.69594704     0.62250
F731        F  0.03269141  0.13425830  0.82326930    -0.22910
F732        F  0.50493344  0.17525263  0.81351081    -0.20240
F733        F  0.05113153  0.16934714  0.79251654    -0.19920
F734        F  0.44723717  0.07642405  0.70369325    -0.19970
F735        F  0.99369142  0.07552441  0.68284306    -0.20290
F736        F  0.46244906  0.11434162  0.67459632    -0.22970
O737        O  0.02507968  0.00028658  0.29329096    -0.72970
O738        O  0.02691073  0.49926845  0.20289078    -0.73950
O739        O  0.02457983  0.54534870  0.24814270    -0.62570
O740        O  0.02707467  0.95424434  0.24816772    -0.70980
O741        O  0.47709612  0.95360187  0.24799830    -0.70530
O742        O  0.47462888  0.54420526  0.24655308    -0.61790
O743        O  0.47717450  0.49801628  0.20181779    -0.74290
O744        O  0.47515676  0.99977357  0.29272371    -0.73070
Cu745      Cu  0.02763650  0.49982709  0.24813156     1.04560
Cu746      Cu  0.47428107  0.99885680  0.24722343     1.04330
C747        C  0.99995067  0.00021307  0.30738511     0.93230
C748        C  0.00246498  0.49875553  0.18784151     0.92370
C749        C  0.99916199  0.55908121  0.24700418     0.84510
C750        C  0.00233460  0.93961940  0.24867735     0.90780
O751        O  0.02501658  0.74652933  0.20377296    -0.72970
O752        O  0.02758461  0.74985440  0.29405698    -0.73950
O753        O  0.02442595  0.70291271  0.25000440    -0.62570
O754        O  0.02792176  0.79357131  0.24758657    -0.70980
O755        O  0.47807136  0.79576440  0.25083065    -0.70530
O756        O  0.47444501  0.70486788  0.24988181    -0.61790
O757        O  0.47789053  0.75050133  0.29593754    -0.74290
O758        O  0.47510518  0.75029397  0.20503340    -0.73070
Cu759      Cu  0.02792956  0.74813847  0.24881328     1.04560
Cu760      Cu  0.47460345  0.75044000  0.25049840     1.04330
C761        C  0.49977271  0.74797903  0.19015037     0.93230
C762        C  0.50331236  0.75038039  0.30955662     0.92370
C763        C  0.49897270  0.68959134  0.25013615     0.84510
C764        C  0.50350593  0.80898791  0.24879802     0.90780
O765        O  0.27683076  0.49766888  0.29814839    -0.72970
O766        O  0.28281724  0.50073760  0.20697457    -0.73950
O767        O  0.27991893  0.54408026  0.25434276    -0.62570
O768        O  0.27985459  0.95386976  0.25085200    -0.70980
O769        O  0.23019240  0.95463018  0.24799949    -0.70530
O770        O  0.23030876  0.54441267  0.25148797    -0.61790
O771        O  0.23302494  0.50117910  0.20494635    -0.74290
O772        O  0.22726266  0.49830773  0.29495462    -0.73070
Cu773      Cu  0.28163007  0.49900680  0.25270613     1.04560
Cu774      Cu  0.22855609  0.49957746  0.24976576     1.04330
C775        C  0.25096366  0.49752487  0.31110915     0.93230
C776        C  0.25855469  0.50217162  0.19155118     0.92370
C777        C  0.25515815  0.55872892  0.25291539     0.84510
C778        C  0.25494444  0.93978981  0.24902771     0.90780
O779        O  0.27241040  0.74958111  0.20489428    -0.72970
O780        O  0.27225671  0.74898978  0.29565869    -0.73950
O781        O  0.27257147  0.70428331  0.24958536    -0.62570
O782        O  0.27190986  0.79423162  0.25096805    -0.70980
O783        O  0.22216517  0.79448620  0.25027472    -0.70530
O784        O  0.22286848  0.70431273  0.24990657    -0.61790
O785        O  0.22249016  0.74937310  0.29535453    -0.74290
O786        O  0.22237480  0.74890366  0.20494170    -0.73070
Cu787      Cu  0.27402296  0.74926936  0.25026553     1.04560
Cu788      Cu  0.22075721  0.74928214  0.25014224     1.04330
C789        C  0.24740780  0.74914902  0.19067599     0.93230
C790        C  0.24719280  0.74915802  0.31000886     0.92370
C791        C  0.24775984  0.68981388  0.24981211     0.84510
C792        C  0.24698159  0.80883722  0.25054247     0.90780
O793        O  0.49641753  0.97162101  0.45202080    -0.72970
O794        O  0.49929403  0.97254784  0.04261044    -0.73950
O795        O  0.45283581  0.97211657  0.99915406    -0.62570
O796        O  0.04334442  0.97217610  0.49570116    -0.70980
O797        O  0.04294591  0.52223264  0.49553895    -0.70530
O798        O  0.45231088  0.52182340  0.99941625    -0.61790
O799        O  0.49931389  0.52258865  0.04286368    -0.74290
O800        O  0.99605643  0.52158438  0.45234093    -0.73070
Cu801      Cu  0.49798567  0.97041338  0.99733662     1.04560
Cu802      Cu  0.49765192  0.52376558  0.49752891     1.04330
C803        C  0.49570547  0.49649252  0.43788648     0.93230
C804        C  0.49942715  0.49767722  0.05696712     0.92370
C805        C  0.43805663  0.49686110  0.99987910     0.84510
C806        C  0.05734609  0.49721734  0.49511680     0.90780
O807        O  0.99940919  0.72579447  0.04526561    -0.72970
O808        O  0.00185279  0.72550748  0.45450028    -0.73950
O809        O  0.04567127  0.72570939  0.50135256    -0.62570
O810        O  0.45571122  0.72494348  0.99895766    -0.70980
O811        O  0.45484956  0.77461547  0.99964835    -0.70530
O812        O  0.04539186  0.77569157  0.50062480    -0.61790
O813        O  0.00043054  0.77555059  0.45497702    -0.74290
O814        O  0.99958004  0.77560158  0.04514498    -0.73070
Cu815      Cu  0.00071262  0.72401655  0.49996037     1.04560
Cu816      Cu  0.00006835  0.77680683  0.00007170     1.04330
C817        C  0.99906326  0.75099064  0.05962363     0.93230
C818        C  0.00103019  0.75051151  0.44053043     0.92370
C819        C  0.05974674  0.75065215  0.50170398     0.84510
C820        C  0.44076625  0.74954658  0.99909551     0.90780
O821        O  0.24794871  0.97390462  0.45767195    -0.72970
O822        O  0.24766350  0.98057761  0.04863876    -0.73950
O823        O  0.20231456  0.97548621  0.00319930    -0.62570
O824        O  0.29252481  0.97800459  0.50335812    -0.70980
O825        O  0.29163066  0.52761767  0.50026754    -0.70530
O826        O  0.20044604  0.52540466  0.00061270    -0.61790
O827        O  0.24665549  0.53044771  0.04577803    -0.74290
O828        O  0.24637389  0.52385178  0.45533616    -0.73070
Cu829      Cu  0.24755267  0.97536145  0.00332505     1.04560
Cu830      Cu  0.24612478  0.52849933  0.50040457     1.04330
C831        C  0.24768988  0.99807948  0.44228616     0.93230
C832        C  0.24764844  0.00656750  0.06149094     0.92370
C833        C  0.18712911  0.99994179  0.00181905     0.84510
C834        C  0.30656675  0.00298784  0.50203722     0.90780
O835        O  0.25147838  0.72655785  0.45510634    -0.72970
O836        O  0.24925007  0.72815702  0.04572100    -0.73950
O837        O  0.20464357  0.72641220  0.99972831    -0.62570
O838        O  0.29530574  0.72859612  0.50105289    -0.70980
O839        O  0.29384689  0.77824565  0.50053869    -0.70530
O840        O  0.20357934  0.77637565  0.99943462    -0.61790
O841        O  0.24801335  0.77794129  0.04545314    -0.74290
O842        O  0.24971045  0.77655092  0.45480084    -0.73070
Cu843      Cu  0.25016075  0.72567002  0.00042760     1.04560
Cu844      Cu  0.24870660  0.77898940  0.50008340     1.04330
C845        C  0.25137183  0.75129659  0.44072313     0.93230
C846        C  0.24865759  0.75334292  0.06005583     0.92370
C847        C  0.18982519  0.75120652  0.99918794     0.84510
C848        C  0.30909979  0.75381206  0.50065109     0.90780
C849        C  0.39225165  0.77760144  0.00092100    -0.05810
C850        C  0.40702396  0.74949856  0.99886619     0.00120
C851        C  0.38933585  0.72327007  0.49669981    -0.08450
C852        C  0.35774022  0.72607407  0.49751369    -0.05830
C853        C  0.34286086  0.75410790  0.49994422     0.00110
C854        C  0.36065177  0.78053869  0.00122173    -0.08360
C855        C  0.34703983  0.81211249  0.00276011     0.62020
H856        H  0.40582124  0.79771173  0.00230387     0.12710
H857        H  0.34425938  0.70590413  0.49613744     0.12730
C858        C  0.40303893  0.69181327  0.49340134     0.62250
F859        F  0.36884172  0.83427901  0.00398321    -0.22910
F860        F  0.32940817  0.81533515  0.02840128    -0.20240
F861        F  0.32961616  0.81730798  0.47731209    -0.19920
F862        F  0.41964813  0.68468991  0.01867641    -0.19970
F863        F  0.42104456  0.69022506  0.46784878    -0.20290
F864        F  0.38129895  0.66973428  0.49042843    -0.22970
C865        C  0.14171732  0.73578808  0.02255689    -0.05810
C866        C  0.15647489  0.75085482  0.99917223     0.00120
C867        C  0.13929194  0.76543058  0.47656660    -0.08450
C868        C  0.10774887  0.76577292  0.47905462    -0.05830
C869        C  0.09296243  0.75056859  0.50218852     0.00110
C870        C  0.11002402  0.73490355  0.02433287    -0.08360
C871        C  0.09490050  0.71861737  0.05018642     0.62020
H872        H  0.15529487  0.72475405  0.03948645     0.12710
H873        H  0.09420371  0.77674683  0.46205100     0.12730
C874        C  0.15392028  0.77728436  0.44823615     0.62250
F875        F  0.11564820  0.70832327  0.07100386    -0.22910
F876        F  0.07926162  0.69401710  0.03916402    -0.20240
F877        F  0.07511270  0.73797391  0.06506499    -0.19920
F878        F  0.16890180  0.75360170  0.43416474    -0.19970
F879        F  0.17393825  0.80005100  0.45513206    -0.20290
F880        F  0.13298208  0.78863795  0.42816515    -0.22970
C881        C  0.35461991  0.97480124  0.49575372    -0.05810
C882        C  0.34028678  0.00253327  0.50218639     0.00120
C883        C  0.35835097  0.52803623  0.00946983    -0.08450
C884        C  0.38995661  0.52481444  0.00831618    -0.05830
C885        C  0.40430727  0.49715957  0.00134268     0.00110
C886        C  0.38615400  0.97121951  0.49589616    -0.08360
C887        C  0.39923088  0.93976233  0.49056270     0.62020
H888        H  0.34071492  0.95549042  0.49062829     0.12710
H889        H  0.40382964  0.54422017  0.01318129     0.12650
C890        C  0.34487874  0.55825097  0.01919288     0.62250
F891        F  0.37706625  0.91844273  0.48566546    -0.22910
F892        F  0.41539277  0.93097975  0.51565009    -0.20240
F893        F  0.41776260  0.93945729  0.46543286    -0.19920
F894        F  0.32522785  0.55429495  0.04313746    -0.19970
F895        F  0.32973509  0.57104959  0.99527105    -0.20290
F896        F  0.36673542  0.57839355  0.02860168    -0.22970
C897        C  0.13999253  0.00234650  0.47271115    -0.05810
C898        C  0.15389197  0.99855171  0.00084725     0.00120
C899        C  0.13579205  0.49302720  0.02668768    -0.08450
C900        C  0.10432640  0.49294109  0.02362186    -0.05830
C901        C  0.09052932  0.49724379  0.49574567     0.00110
C902        C  0.10837937  0.00147832  0.46966760    -0.08360
C903        C  0.09392811  0.00495728  0.43896357     0.62020
H904        H  0.15410776  0.00601484  0.45309524     0.12710
H905        H  0.09028747  0.48948503  0.04338868     0.12730
C906        C  0.14771874  0.48801026  0.05821448     0.62250
F907        F  0.11521684  0.50682824  0.41613353    -0.22910
F908        F  0.07662042  0.53094457  0.43893204    -0.20240
F909        F  0.07575716  0.98042891  0.43281026    -0.19920
F910        F  0.13769872  0.51140148  0.07664449    -0.19970
F911        F  0.17873565  0.98647028  0.05960887    -0.20290
F912        F  0.13646484  0.96128425  0.06916583    -0.22970
C913        C  0.25977103  0.77483100  0.14337279    -0.05810
C914        C  0.24748883  0.74966537  0.15743607     0.00120
C915        C  0.23594009  0.72569405  0.13978029    -0.08450
C916        C  0.23658137  0.72805775  0.10815314    -0.05830
C917        C  0.24840666  0.75351220  0.09373098     0.00110
C918        C  0.26042485  0.77738790  0.11172804    -0.08360
C919        C  0.27464920  0.80512288  0.09803531     0.62020
H920        H  0.26858535  0.79273550  0.15759327     0.12710
H921        H  0.22756234  0.70992221  0.09440091     0.12730
C922        C  0.22380143  0.69743058  0.15434149     0.62250
F923        F  0.28774348  0.82354428  0.11971882    -0.22910
F924        F  0.25292625  0.82196042  0.08343658    -0.20240
F925        F  0.29696745  0.79643400  0.07780657    -0.19920
F926        F  0.19824365  0.70441673  0.17102007    -0.19970
F927        F  0.24541168  0.68529613  0.17317015    -0.20290
F928        F  0.21623775  0.67565240  0.13307439    -0.22970
C929        C  0.27344929  0.73891440  0.35842505    -0.05810
C930        C  0.24719482  0.74914816  0.34372679     0.00120
C931        C  0.22252978  0.75993316  0.36161899    -0.08450
C932        C  0.22621141  0.76225163  0.39299152    -0.05830
C933        C  0.25157370  0.75075311  0.40745895     0.00110
C934        C  0.27578955  0.73889561  0.39015402    -0.08360
C935        C  0.30433153  0.72751686  0.40515782     0.62020
H936        H  0.29209405  0.73044858  0.34487006     0.12710
H937        H  0.20896050  0.77280787  0.40671399     0.12730
C938        C  0.19226936  0.76886360  0.34837012     0.62250
F939        F  0.32614827  0.71914527  0.38418364    -0.22910
F940        F  0.29788964  0.70268294  0.42248547    -0.20240
F941        F  0.31613784  0.74996202  0.42348362    -0.19920
F942        F  0.17944037  0.74423926  0.33403227    -0.19970
F943        F  0.19617041  0.79183515  0.32814922    -0.20290
F944        F  0.17207056  0.77892234  0.37024497    -0.22970
C945        C  0.27692700  0.99562838  0.10703122    -0.05810
C946        C  0.25088420  0.50868421  0.09466634     0.00120
C947        C  0.22966250  0.52296896  0.11426011    -0.08450
C948        C  0.23382768  0.52064041  0.14552386    -0.05830
C949        C  0.25886638  0.50594029  0.15810397     0.00110
C950        C  0.28197853  0.99506363  0.13844720    -0.08360
C951        C  0.31172568  0.98299538  0.15012004     0.62020
H952        H  0.29357291  0.98606577  0.09164260     0.12710
H953        H  0.21694694  0.53058523  0.16045781     0.12730
C954        C  0.20191070  0.54044725  0.10453115     0.62250
F955        F  0.33083250  0.97382697  0.12691422    -0.22910
F956        F  0.30660674  0.95853640  0.16825062    -0.20240
F957        F  0.32625671  0.50529261  0.16649250    -0.19920
F958        F  0.17671885  0.02770533  0.11751104    -0.19970
F959        F  0.19776087  0.54112039  0.07372953    -0.20290
F960        F  0.20417015  0.56985839  0.11494045    -0.22970
C961        C  0.22213970  0.99276629  0.39317567    -0.05810
C962        C  0.24903538  0.99651174  0.40904543     0.00120
C963        C  0.27635877  0.50020840  0.39317400    -0.08450
C964        C  0.27584879  0.50008396  0.36140577    -0.05830
C965        C  0.24885917  0.49673864  0.34495559     0.00110
C966        C  0.22128871  0.99292180  0.36133790    -0.08360
C967        C  0.19088957  0.98913740  0.34597432     0.62020
H968        H  0.20159676  0.99024137  0.40617506     0.12710
H969        H  0.29678605  0.50303210  0.34922357     0.12730
C970        C  0.30588906  0.50429302  0.40994990     0.62250
F971        F  0.16781734  0.98461920  0.36654523    -0.22910
F972        F  0.19174281  0.96437195  0.32668594    -0.20240
F973        F  0.18381625  0.51481144  0.33002717    -0.19920
F974        F  0.31103107  0.97976219  0.42821346    -0.19970
F975        F  0.30448414  0.53015162  0.42767769    -0.20290
F976        F  0.33014314  0.50682417  0.39040512    -0.22970
C977        C  0.22600520  0.89279775  0.25484383    -0.05810
C978        C  0.25400079  0.90618604  0.24882533     0.00120
C979        C  0.27936119  0.88727183  0.24275041    -0.08450
C980        C  0.27557718  0.85589603  0.24353468    -0.05830
C981        C  0.24763900  0.84247136  0.24983982     0.00110
C982        C  0.22211125  0.86141568  0.25522876    -0.08360
C983        C  0.19080555  0.84925423  0.26167446     0.62020
H984        H  0.20680415  0.90730802  0.25946250     0.12710
H985        H  0.29484995  0.84144690  0.23903820     0.12730
C986        C  0.31030274  0.89952715  0.23490100     0.62250
F987        F  0.16998232  0.87197349  0.26762300    -0.22910
F988        F  0.19174084  0.83114159  0.28669276    -0.20240
F989        F  0.18056561  0.83295866  0.23698555    -0.19920
F990        F  0.32209426  0.91489146  0.25946976    -0.19970
F991        F  0.30795543  0.91856923  0.21064363    -0.20290
F992        F  0.33057312  0.87690986  0.22689612    -0.22970
C993        C  0.27700790  0.64207828  0.24969823    -0.05810
C994        C  0.24847486  0.65616951  0.25027275     0.00120
C995        C  0.22228915  0.63786110  0.25167155    -0.08450
C996        C  0.22602647  0.60645761  0.25291792    -0.05830
C997        C  0.25454868  0.59236794  0.25245159     0.00110
C998        C  0.28072089  0.61063405  0.25062514    -0.08360
C999        C  0.31258616  0.59765233  0.24941395     0.62020
H1000       H  0.29683884  0.65604429  0.24848809     0.12710
H1001       H  0.20619707  0.59250285  0.25424412     0.12730
C1002       C  0.19034272  0.65070083  0.25184896     0.62250
F1003       F  0.33424899  0.61983193  0.24709183    -0.22910
F1004       F  0.31574079  0.57879113  0.22446130    -0.20240
F1005       F  0.31846336  0.58190143  0.27551299    -0.19920
F1006       F  0.18544878  0.66692180  0.22584226    -0.19970
F1007       F  0.18609294  0.66905271  0.27701650    -0.20290
F1008       F  0.16868504  0.62840353  0.25281883    -0.22970
C1009       C  0.48583914  0.77251142  0.14261109    -0.05810
C1010       C  0.99921111  0.74786957  0.15687253     0.00120
C1011       C  0.01203940  0.72419174  0.13932523    -0.08450
C1012       C  0.01126954  0.72621579  0.10772603    -0.05830
C1013       C  0.99865328  0.75127186  0.09319719     0.00110
C1014       C  0.48579972  0.77509668  0.11097345    -0.08360
C1015       C  0.47200628  0.80313612  0.09708993     0.62020
H1016       H  0.47606367  0.79020380  0.15666524     0.12710
H1017       H  0.02110192  0.70826282  0.09405491     0.12730
C1018       C  0.02557205  0.69644761  0.15385644     0.62250
F1019       F  0.45835990  0.82166427  0.11858779    -0.22910
F1020       F  0.45028161  0.79504988  0.07621748    -0.20240
F1021       F  0.99426704  0.81969819  0.08315938    -0.19920
F1022       F  0.50466830  0.68393819  0.17306852    -0.19970
F1023       F  0.05101422  0.70419799  0.17002994    -0.20290
F1024       F  0.03379250  0.67468730  0.13264547    -0.22970
C1025       C  0.02851904  0.74533932  0.39245854    -0.05810
C1026       C  0.00115521  0.75060226  0.40732604     0.00120
C1027       C  0.47487548  0.75663559  0.39056701    -0.08450
C1028       C  0.47673176  0.75623742  0.35885982    -0.05830
C1029       C  0.00416349  0.75084079  0.34340812     0.00110
C1030       C  0.03087193  0.74593280  0.36074611    -0.08360
C1031       C  0.06192449  0.74160299  0.34660020     0.62020
H1032       H  0.04826774  0.74128134  0.40618186     0.12710
H1033       H  0.45652840  0.76048631  0.34593048     0.12730
C1034       C  0.44501705  0.76325724  0.40628065     0.62250
F1035       F  0.08408740  0.73707591  0.36805221    -0.22910
F1036       F  0.06964618  0.76696709  0.33057661    -0.20240
F1037       F  0.06199224  0.71667599  0.32765279    -0.19920
F1038       F  0.44748319  0.78903368  0.42395595    -0.19970
F1039       F  0.43735080  0.73935768  0.42441988    -0.20290
F1040       F  0.42187801  0.76771963  0.38588901    -0.22970
C1041       C  0.47665994  0.98945704  0.13900092    -0.05810
C1042       C  0.50299552  0.49878070  0.15407685     0.00120
C1043       C  0.02820857  0.50832419  0.13655159    -0.08450
C1044       C  0.02591129  0.50776058  0.10481733    -0.05830
C1045       C  0.49979727  0.49794673  0.09021622     0.00110
C1046       C  0.47460314  0.98894089  0.10733665    -0.08360
C1047       C  0.44542486  0.97960428  0.09210791     0.62020
H1048       H  0.45749708  0.98232179  0.15223408     0.12710
H1049       H  0.04473452  0.51465736  0.09093108     0.12730
C1050       C  0.05739912  0.51938356  0.15068089     0.62250
F1051       F  0.42297055  0.97343904  0.11287864    -0.22910
F1052       F  0.45026573  0.95398100  0.07463516    -0.20240
F1053       F  0.43526674  0.50260232  0.07389559    -0.19920
F1054       F  0.07143855  0.99603998  0.16564496    -0.19970
F1055       F  0.05140694  0.54290289  0.17066282    -0.20290
F1056       F  0.07746330  0.52980570  0.12924581    -0.22970
C1057       C  0.01690919  0.51540160  0.39055356    -0.05810
C1058       C  0.49595398  0.49665149  0.40451493     0.00120
C1059       C  0.47588170  0.97946115  0.38654857    -0.08450
C1060       C  0.47765041  0.98179127  0.35492909    -0.05830
C1061       C  0.49939557  0.99978342  0.34088214     0.00110
C1062       C  0.01953407  0.51687849  0.35901980    -0.08360
C1063       C  0.04320847  0.53726196  0.34549722     0.62020
H1064       H  0.03171614  0.52861070  0.40473482     0.12710
H1065       H  0.46226588  0.96909887  0.34082551     0.12730
C1066       C  0.45201929  0.95967978  0.40059915     0.62250
F1067       F  0.05717737  0.55497639  0.36721553    -0.22910
F1068       F  0.02980355  0.55624307  0.32505702    -0.20240
F1069       F  0.06522370  0.52011291  0.33112536    -0.19920
F1070       F  0.43456131  0.97675563  0.42039066    -0.19970
F1071       F  0.46558770  0.93632921  0.41594088    -0.20290
F1072       F  0.43312043  0.94715382  0.37908906    -0.22970
C1073       C  0.01889836  0.89048135  0.22699386    -0.05810
C1074       C  0.50290269  0.90622894  0.24963777     0.00120
C1075       C  0.48798726  0.88993816  0.27255404    -0.08450
C1076       C  0.48869578  0.85821592  0.27129617    -0.05830
C1077       C  0.50445089  0.84241556  0.24850314     0.00110
C1078       C  0.01988554  0.85872209  0.22590927    -0.08360
C1079       C  0.03634048  0.84275559  0.20013026     0.62020
H1080       H  0.03030507  0.90336891  0.20983469     0.12710
H1081       H  0.47721406  0.84538335  0.28845037     0.12730
C1082       C  0.47269626  0.90594023  0.29903083     0.62250
F1083       F  0.04682313  0.86280283  0.17889244    -0.22910
F1084       F  0.01703260  0.82298661  0.18571607    -0.20240
F1085       F  0.06082208  0.82699206  0.21115653    -0.19920
F1086       F  0.44820058  0.92242315  0.28912275    -0.19970
F1087       F  0.49303288  0.92503436  0.31293451    -0.20290
F1088       F  0.46250395  0.88588314  0.32040185    -0.22970
C1089       C  0.01149435  0.60774934  0.27149435    -0.05810
C1090       C  0.49815121  0.59247679  0.24717251     0.00120
C1091       C  0.48439549  0.60925545  0.22388362    -0.08450
C1092       C  0.48398966  0.64099686  0.22625169    -0.05830
C1093       C  0.49801788  0.65621237  0.25033245     0.00110
C1094       C  0.01142099  0.63936157  0.27370140    -0.08360
C1095       C  0.02519991  0.65468444  0.30110098     0.62020
H1096       H  0.02220285  0.59467509  0.28881704     0.12710
H1097       H  0.47323279  0.65421164  0.20893827     0.12730
C1098       C  0.47174246  0.59377795  0.19595446     0.62250
F1099       F  0.03269368  0.63426451  0.32327021    -0.22910
F1100       F  0.50493324  0.67525577  0.31350632    -0.20240
F1101       F  0.05113344  0.66935287  0.29251586    -0.19920
F1102       F  0.44723516  0.57641354  0.20369621    -0.19970
F1103       F  0.99369182  0.57552216  0.18285184    -0.20290
F1104       F  0.46244570  0.61433504  0.17460309    -0.22970
O1105       O  0.02507272  0.00029308  0.79329499    -0.72970
O1106       O  0.02692037  0.49926386  0.70289487    -0.73950
O1107       O  0.02457984  0.54535081  0.74814151    -0.62570
O1108       O  0.02707623  0.95424605  0.74817608    -0.70980
O1109       O  0.47709768  0.95360319  0.74799645    -0.70530
O1110       O  0.47462939  0.54420688  0.74654232    -0.61790
O1111       O  0.47718446  0.49801160  0.70181148    -0.74290
O1112       O  0.47514994  0.99977928  0.79271784    -0.73070
Cu1113     Cu  0.02763753  0.49982867  0.74813569     1.04560
Cu1114     Cu  0.47428237  0.99885784  0.74721695     1.04330
C1115       C  0.99994093  0.00022150  0.80738426     0.93230
C1116       C  0.00247794  0.49874703  0.68784036     0.92370
C1117       C  0.99916214  0.55908336  0.74699736     0.84510
C1118       C  0.00233610  0.93962106  0.74868111     0.90780
O1119       O  0.02499535  0.74654831  0.70377162    -0.72970
O1120       O  0.02759464  0.74983378  0.79405809    -0.73950
O1121       O  0.02442711  0.70291510  0.74999437    -0.62570
O1122       O  0.02792044  0.79357238  0.74759528    -0.70980
O1123       O  0.47807127  0.79576803  0.75085852    -0.70530
O1124       O  0.47444570  0.70486983  0.74989081    -0.61790
O1125       O  0.47790029  0.75048580  0.79594975    -0.74290
O1126       O  0.47508432  0.75031883  0.70505874    -0.73070
Cu1127     Cu  0.02792703  0.74813929  0.74881266     1.04560
Cu1128     Cu  0.47460099  0.75044357  0.75051800     1.04330
C1129       C  0.49974493  0.74802412  0.69016282     0.93230
C1130       C  0.50332459  0.75033907  0.80956201     0.92370
C1131       C  0.49897452  0.68959379  0.75013541     0.84510
C1132       C  0.50350579  0.80899016  0.74881291     0.90780
O1133       O  0.27682157  0.49770066  0.79816057    -0.72970
O1134       O  0.28284360  0.50070047  0.70698391    -0.73950
O1135       O  0.27992793  0.54407769  0.75432464    -0.62570
O1136       O  0.27986030  0.95386470  0.75089331    -0.70980
O1137       O  0.23019919  0.95462556  0.74802249    -0.70530
O1138       O  0.23031864  0.54440808  0.75145464    -0.61790
O1139       O  0.23305201  0.50114336  0.70494066    -0.74290
O1140       O  0.22725466  0.49833670  0.79494951    -0.73070
Cu1141     Cu  0.28163818  0.49900319  0.75271800     1.04560
Cu1142     Cu  0.22856525  0.49957317  0.74975972     1.04330
C1143       C  0.25095004  0.49757185  0.81111318     0.93230
C1144       C  0.25858586  0.50212352  0.69155184     0.92370
C1145       C  0.25516715  0.55872520  0.75288613     0.84510
C1146       C  0.25495016  0.93978492  0.74906466     0.90780
O1147       O  0.27240620  0.74958082  0.70489501    -0.72970
O1148       O  0.27225424  0.74898163  0.79566000    -0.73950
O1149       O  0.27257122  0.70428024  0.74958148    -0.62570
O1150       O  0.27190506  0.79422625  0.75097500    -0.70980
O1151       O  0.22216038  0.79448180  0.75028341    -0.70530
O1152       O  0.22286824  0.70430742  0.74990311    -0.61790
O1153       O  0.22248765  0.74936350  0.79535685    -0.74290
O1154       O  0.22237066  0.74890299  0.70494384    -0.73070
Cu1155     Cu  0.27401994  0.74926529  0.75026672     1.04560
Cu1156     Cu  0.22075419  0.74927703  0.75014461     1.04330
C1157       C  0.24740318  0.74914833  0.69067728     0.93230
C1158       C  0.24719058  0.74914919  0.81001067     0.92370
C1159       C  0.24776040  0.68980974  0.74980572     0.84510
C1160       C  0.24697711  0.80883240  0.75055385     0.90780
O1161       O  0.49635893  0.97168719  0.95202738    -0.72970
O1162       O  0.49935379  0.97247896  0.54260990    -0.73950
O1163       O  0.45290021  0.97202321  0.49915026    -0.62570
O1164       O  0.04328976  0.97223592  0.99570648    -0.70980
O1165       O  0.04289851  0.52229226  0.99554060    -0.70530
O1166       O  0.45235211  0.52172999  0.49941403    -0.61790
O1167       O  0.49935669  0.52252000  0.54285912    -0.74290
O1168       O  0.99601213  0.52165012  0.95233891    -0.73070
Cu1169     Cu  0.49804598  0.97034153  0.49733256     1.04560
Cu1170     Cu  0.49760851  0.52383714  0.99753039     1.04330
C1171       C  0.49565473  0.49655540  0.93788831     0.93230
C1172       C  0.49947737  0.49761042  0.55696453     0.92370
C1173       C  0.43810977  0.49675993  0.49987584     0.84510
C1174       C  0.05729537  0.49727584  0.99512085     0.90780
O1175       O  0.99940280  0.72630715  0.54524643    -0.72970
O1176       O  0.00180936  0.72491359  0.95448085    -0.73950
O1177       O  0.04568768  0.72513257  0.00133194    -0.62570
O1178       O  0.45575985  0.72546969  0.49892809    -0.70980
O1179       O  0.45481034  0.77513874  0.49968754    -0.70530
O1180       O  0.04537635  0.77511561  0.00056421    -0.61790
O1181       O  0.00043984  0.77495805  0.95496029    -0.74290
O1182       O  0.99955545  0.77611727  0.54522128    -0.73070
Cu1183     Cu  0.00069455  0.72345067  0.99996366     1.04560
Cu1184     Cu  0.00005295  0.77737194  0.50012113     1.04330
C1185       C  0.99904859  0.75147296  0.55965318     0.93230
C1186       C  0.00100779  0.74992415  0.94051401     0.92370
C1187       C  0.05974684  0.75009117  0.00165275     0.84510
C1188       C  0.44077176  0.75004062  0.49909542     0.90780
O1189       O  0.24789851  0.97407547  0.95767819    -0.72970
O1190       O  0.24771417  0.98041848  0.54863709    -0.73950
O1191       O  0.20236109  0.97533024  0.50319446    -0.62570
O1192       O  0.29247026  0.97817754  0.00336166    -0.70980
O1193       O  0.29158041  0.52779134  0.00027968    -0.70530
O1194       O  0.20050435  0.52524882  0.50060397    -0.61790
O1195       O  0.24671241  0.53028784  0.54576439    -0.74290
O1196       O  0.24632146  0.52402261  0.95534328    -0.73070
Cu1197     Cu  0.24760292  0.97519522  0.50332117     1.04560
Cu1198     Cu  0.24606960  0.52866585  0.00041523     1.04330
C1199       C  0.24763949  0.99825015  0.94229278     0.93230
C1200       C  0.24770101  0.00641175  0.56148308     0.92370
C1201       C  0.18718141  0.99978996  0.50181215     0.84510
C1202       C  0.30651467  0.00315911  0.00204317     0.90780
O1203       O  0.25146479  0.72655253  0.95510655    -0.72970
O1204       O  0.24925895  0.72815864  0.54571879    -0.73950
O1205       O  0.20463306  0.72642662  0.49972105    -0.62570
O1206       O  0.29526894  0.72855407  0.00105375    -0.70980
O1207       O  0.29389152  0.77820676  0.00053339    -0.70530
O1208       O  0.20359027  0.77639049  0.49942588    -0.61790
O1209       O  0.24799088  0.77794231  0.54545427    -0.74290
O1210       O  0.24972122  0.77654645  0.95480327    -0.73070
Cu1211     Cu  0.25017343  0.72568024  0.50042541     1.04560
Cu1212     Cu  0.24872332  0.77898015  0.00008416     1.04330
C1213       C  0.25137088  0.75129261  0.94072452     0.93230
C1214       C  0.24864977  0.75334269  0.56005550     0.92370
C1215       C  0.18982624  0.75123211  0.49917219     0.84510
C1216       C  0.30910451  0.75374273  0.00064733     0.90780
C1217       C  0.39216821  0.77794239  0.50090266    -0.05810
C1218       C  0.40703084  0.74989093  0.49885814     0.00120
C1219       C  0.38924187  0.72294302  0.99668889    -0.08450
C1220       C  0.35765636  0.72585656  0.99749815    -0.05830
C1221       C  0.34286690  0.75394093  0.99993803     0.00110
C1222       C  0.36055894  0.78076927  0.50121566    -0.08360
C1223       C  0.34684386  0.81230037  0.50275631     0.62020
H1224       H  0.40567427  0.79809690  0.50226964     0.12710
H1225       H  0.34411273  0.70573014  0.99610922     0.12730
C1226       C  0.40284093  0.69144588  0.99336893     0.62250
F1227       F  0.36857084  0.83453915  0.50397991    -0.22910
F1228       F  0.32920655  0.81546594  0.52839997    -0.20240
F1229       F  0.32983069  0.81717405  0.97731498    -0.19920
F1230       F  0.41988408  0.68513569  0.51870575    -0.19970
F1231       F  0.42085864  0.68982405  0.96782696    -0.20290
F1232       F  0.38102677  0.66944341  0.99036110    -0.22970
C1233       C  0.14166729  0.73590832  0.52250689    -0.05810
C1234       C  0.15647683  0.75094196  0.49913805     0.00120
C1235       C  0.13923886  0.76522201  0.97656190    -0.08450
C1236       C  0.10769099  0.76533462  0.97897834    -0.05830
C1237       C  0.09296140  0.75008695  0.00212050     0.00110
C1238       C  0.10997079  0.73518748  0.52431202    -0.08360
C1239       C  0.09479361  0.71882021  0.55008358     0.62020
H1240       H  0.15520574  0.72476145  0.53939293     0.12710
H1241       H  0.09410396  0.77619472  0.96193432     0.12730
C1242       C  0.15383658  0.77720998  0.94827567     0.62250
F1243       F  0.11550678  0.70836662  0.57085454    -0.22910
F1244       F  0.07909597  0.69431112  0.53893910    -0.20240
F1245       F  0.07505231  0.73815640  0.56505069    -0.19920
F1246       F  0.16891767  0.75362331  0.93415293    -0.19970
F1247       F  0.17375939  0.80003831  0.95524852    -0.20290
F1248       F  0.13286813  0.78854184  0.92822311    -0.22970
C1249       C  0.35455424  0.97495379  0.99575296    -0.05810
C1250       C  0.34023523  0.00269327  0.00218652     0.00120
C1251       C  0.35838877  0.52788591  0.50947181    -0.08450
C1252       C  0.38999534  0.52468277  0.50831676    -0.05830
C1253       C  0.40436086  0.49703747  0.50134010     0.00110
C1254       C  0.38608571  0.97135313  0.99589845    -0.08360
C1255       C  0.39914382  0.93988773  0.99057021     0.62020
H1256       H  0.34063977  0.95565035  0.99062619     0.12710
H1257       H  0.40385749  0.54409620  0.51318241     0.12650
C1258       C  0.34490105  0.55809277  0.51919858     0.62250
F1259       F  0.37696657  0.91858111  0.98567374    -0.22910
F1260       F  0.41529774  0.93109909  0.01566046    -0.20240
F1261       F  0.41767790  0.93956786  0.96544226    -0.19920
F1262       F  0.32524709  0.55412298  0.54313820    -0.19970
F1263       F  0.32975739  0.57089015  0.49527602    -0.20290
F1264       F  0.36674652  0.57824310  0.52861676    -0.22970
C1265       C  0.13993807  0.00246984  0.97271899    -0.05810
C1266       C  0.15394377  0.99841417  0.50083890     0.00120
C1267       C  0.13583906  0.49291227  0.52668094    -0.08450
C1268       C  0.10437323  0.49286470  0.52361779    -0.05830
C1269       C  0.09047921  0.49730636  0.99574884     0.00110
C1270       C  0.10832634  0.00156703  0.96967332    -0.08360
C1271       C  0.09387314  0.00503839  0.93896944     0.62020
H1272       H  0.15405027  0.00615362  0.95310409     0.12710
H1273       H  0.09033144  0.48942231  0.54338530     0.12730
C1274       C  0.14776079  0.48787849  0.55820647     0.62250
F1275       F  0.11516063  0.50693622  0.91614102    -0.22910
F1276       F  0.07653970  0.53100856  0.93894309    -0.20240
F1277       F  0.07572731  0.98049279  0.93280977    -0.19920
F1278       F  0.13776746  0.51127921  0.57663841    -0.19970
F1279       F  0.17877627  0.98630172  0.55959971    -0.20290
F1280       F  0.13647530  0.96116502  0.56915587    -0.22970
C1281       C  0.25976305  0.77482910  0.64337265    -0.05810
C1282       C  0.24748299  0.74966334  0.65743698     0.00120
C1283       C  0.23593593  0.72569039  0.63978184    -0.08450
C1284       C  0.23657677  0.72805301  0.60815391    -0.05830
C1285       C  0.24839866  0.75350900  0.59373113     0.00110
C1286       C  0.26041600  0.77738484  0.61172795    -0.08360
C1287       C  0.27464335  0.80511668  0.59803361     0.62020
H1288       H  0.26857724  0.79273438  0.65759221     0.12710
H1289       H  0.22755991  0.70991629  0.59440174     0.12730
C1290       C  0.22379871  0.69742729  0.65434512     0.62250
F1291       F  0.28773792  0.82353929  0.61971569    -0.22910
F1292       F  0.25292349  0.82195469  0.58343097    -0.20240
F1293       F  0.29696198  0.79642141  0.57780842    -0.19920
F1294       F  0.19824104  0.70441364  0.67102386    -0.19970
F1295       F  0.24540965  0.68529482  0.67317437    -0.20290
F1296       F  0.21623539  0.67564756  0.63307959    -0.22970
C1297       C  0.27344831  0.73890908  0.85842695    -0.05810
C1298       C  0.24719331  0.74914131  0.84372859     0.00120
C1299       C  0.22252986  0.75993050  0.86162059    -0.08450
C1300       C  0.22621416  0.76225494  0.89299244    -0.05830
C1301       C  0.25157415  0.75075211  0.90746039     0.00110
C1302       C  0.27578946  0.73889324  0.89015588    -0.08360
C1303       C  0.30433196  0.72751665  0.90516017     0.62020
H1304       H  0.29209263  0.73044195  0.84487214     0.12710
H1305       H  0.20896820  0.77282123  0.90671365     0.12730
C1306       C  0.19226902  0.76886047  0.84837227     0.62250
F1307       F  0.32614768  0.71914184  0.88418618    -0.22910
F1308       F  0.29789039  0.70268560  0.92249195    -0.20240
F1309       F  0.31613932  0.74996438  0.92348215    -0.19920
F1310       F  0.17943879  0.74423554  0.83403647    -0.19970
F1311       F  0.19617016  0.79183035  0.82814955    -0.20290
F1312       F  0.17207112  0.77892104  0.87024735    -0.22970
C1313       C  0.27697128  0.99550110  0.60703850    -0.05810
C1314       C  0.25092807  0.50854180  0.59465864     0.00120
C1315       C  0.22970649  0.52284792  0.61423708    -0.08450
C1316       C  0.23386789  0.52054928  0.64550349    -0.05830
C1317       C  0.25890572  0.50586351  0.65810067     0.00110
C1318       C  0.28202289  0.99497472  0.63845615    -0.08360
C1319       C  0.31177897  0.98294350  0.65014311     0.62020
H1320       H  0.29362049  0.98592715  0.59166043     0.12710
H1321       H  0.21698581  0.53050903  0.66042610     0.12730
C1322       C  0.20196120  0.54032555  0.60448937     0.62250
F1323       F  0.33089565  0.97377002  0.62694736    -0.22910
F1324       F  0.30668030  0.95849812  0.66829665    -0.20240
F1325       F  0.32628863  0.50526909  0.66649602    -0.19920
F1326       F  0.17676569  0.02761554  0.61749420    -0.19970
F1327       F  0.19780389  0.54095643  0.57368745    -0.20290
F1328       F  0.20423856  0.56974950  0.61485622    -0.22970
C1329       C  0.22209762  0.99292372  0.89317834    -0.05810
C1330       C  0.24898982  0.99667711  0.90905217     0.00120
C1331       C  0.27631916  0.50034804  0.89318449    -0.08450
C1332       C  0.27581893  0.50018843  0.86141571    -0.05830
C1333       C  0.24883401  0.49682810  0.84496070     0.00110
C1334       C  0.22125696  0.99304035  0.86133950    -0.08360
C1335       C  0.19086219  0.98924186  0.84597078     0.62020
H1336       H  0.20155038  0.99041614  0.90617469     0.12710
H1337       H  0.29676095  0.50311649  0.84923638     0.12730
C1338       C  0.30584597  0.50443872  0.90996491     0.62250
F1339       F  0.16778195  0.98475640  0.86654059    -0.22910
F1340       F  0.19171682  0.96445050  0.82671615    -0.20240
F1341       F  0.18379976  0.51489508  0.82998593    -0.19920
F1342       F  0.31097565  0.97992276  0.92825156    -0.19970
F1343       F  0.30444340  0.53031292  0.92766982    -0.20290
F1344       F  0.33010633  0.50694554  0.89042427    -0.22970
C1345       C  0.22600692  0.89279409  0.75487592    -0.05810
C1346       C  0.25400505  0.90618125  0.74886608     0.00120
C1347       C  0.27936477  0.88726605  0.74279206    -0.08450
C1348       C  0.27557776  0.85589070  0.74356808    -0.05830
C1349       C  0.24763659  0.84246678  0.74986130     0.00110
C1350       C  0.22210929  0.86141200  0.75524910    -0.08360
C1351       C  0.19079979  0.84925147  0.76167801     0.62020
H1352       H  0.20680633  0.90730527  0.75949373     0.12710
H1353       H  0.29485049  0.84144135  0.73907243     0.12730
C1354       C  0.31030809  0.89951993  0.73494832     0.62250
F1355       F  0.16997598  0.87197113  0.76762268    -0.22910
F1356       F  0.19172211  0.83113256  0.78669211    -0.20240
F1357       F  0.18056958  0.83296260  0.73698054    -0.19920
F1358       F  0.32209683  0.91488257  0.75951940    -0.19970
F1359       F  0.30796457  0.91856299  0.71069201    -0.20290
F1360       F  0.33057862  0.87690240  0.72694445    -0.22970
C1361       C  0.27701177  0.64207614  0.74968158    -0.05810
C1362       C  0.24847766  0.65616544  0.75025871     0.00120
C1363       C  0.22229312  0.63785520  0.75165256    -0.08450
C1364       C  0.22603241  0.60645155  0.75288838    -0.05830
C1365       C  0.25455564  0.59236390  0.75242129     0.00110
C1366       C  0.28072682  0.61063196  0.75060279    -0.08360
C1367       C  0.31259304  0.59765236  0.74939661     0.62020
H1368       H  0.29684195  0.65604366  0.74847613     0.12710
H1369       H  0.20620377  0.59249526  0.75420985     0.12730
C1370       C  0.19034599  0.65069326  0.75183789     0.62250
F1371       F  0.33425473  0.61983348  0.74707814    -0.22910
F1372       F  0.31575285  0.57879122  0.72444457    -0.20240
F1373       F  0.31846703  0.58190188  0.77549665    -0.19920
F1374       F  0.18544714  0.66692057  0.72583618    -0.19970
F1375       F  0.18609909  0.66903865  0.77701065    -0.20290
F1376       F  0.16868966  0.62839455  0.75280562    -0.22970
C1377       C  0.48577731  0.77269190  0.64270972    -0.05810
C1378       C  0.99916840  0.74800993  0.65688780     0.00120
C1379       C  0.01201030  0.72439889  0.63926311    -0.08450
C1380       C  0.01127030  0.72655014  0.60767325    -0.05830
C1381       C  0.99864241  0.75165345  0.59322803     0.00110
C1382       C  0.48574368  0.77539161  0.61108311    -0.08360
C1383       C  0.47189541  0.80344865  0.59729363     0.62020
H1384       H  0.47597622  0.79032387  0.65682242     0.12710
H1385       H  0.02112506  0.70865322  0.59394428     0.12730
C1386       C  0.02551701  0.69658924  0.65369798     0.62250
F1387       F  0.45820188  0.82187294  0.61885144    -0.22910
F1388       F  0.45019537  0.79538481  0.57638754    -0.20240
F1389       F  0.99412392  0.82010436  0.58342663    -0.19920
F1390       F  0.50459946  0.68402406  0.67286118    -0.19970
F1391       F  0.05096250  0.70426059  0.66990371    -0.20290
F1392       F  0.03372271  0.67489812  0.63240971    -0.22970
C1393       C  0.02848953  0.74484346  0.89243408    -0.05810
C1394       C  0.00112559  0.75006709  0.90731389     0.00120
C1395       C  0.47488307  0.75633181  0.89058046    -0.08450
C1396       C  0.47674947  0.75608467  0.85887569    -0.05830
C1397       C  0.00417553  0.75070014  0.84341082     0.00110
C1398       C  0.03087199  0.74568237  0.86073335    -0.08360
C1399       C  0.06194650  0.74153245  0.84658743     0.62020
H1400       H  0.04822370  0.74066900  0.90614308     0.12710
H1401       H  0.45656613  0.76046960  0.84596048     0.12730
C1402       C  0.44506386  0.76308982  0.90631770     0.62250
F1403       F  0.08411717  0.73701116  0.86803257    -0.22910
F1404       F  0.06957352  0.76699598  0.83067453    -0.20240
F1405       F  0.06212378  0.71668421  0.82753691    -0.19920
F1406       F  0.44768093  0.78882330  0.92403302    -0.19970
F1407       F  0.43726541  0.73920558  0.92442104    -0.20290
F1408       F  0.42194370  0.76772092  0.88594355    -0.22970
C1409       C  0.47668409  0.98943356  0.63899592    -0.05810
C1410       C  0.50301676  0.49875996  0.65407556     0.00120
C1411       C  0.02823605  0.50829275  0.63655321    -0.08450
C1412       C  0.02595123  0.50770689  0.60481812    -0.05830
C1413       C  0.49984086  0.49788811  0.59021373     0.00110
C1414       C  0.47463711  0.98890285  0.60733094    -0.08360
C1415       C  0.44545837  0.97957660  0.59209705     0.62020
H1416       H  0.45751491  0.98231025  0.65222663     0.12710
H1417       H  0.04478006  0.51459362  0.59093422     0.12730
C1418       C  0.05741903  0.51936724  0.65068644     0.62250
F1419       F  0.42299649  0.97342413  0.61286360    -0.22910
F1420       F  0.45029223  0.95394933  0.57462840    -0.20240
F1421       F  0.43531480  0.50257680  0.57387946    -0.19920
F1422       F  0.07146077  0.99603520  0.66566601    -0.19970
F1423       F  0.05141376  0.54289424  0.67065554    -0.20290
F1424       F  0.07748640  0.52978554  0.62925241    -0.22970
C1425       C  0.01686615  0.51545080  0.89055292    -0.05810
C1426       C  0.49590953  0.49670378  0.90451589     0.00120
C1427       C  0.47585240  0.97949473  0.88654916    -0.08450
C1428       C  0.47763280  0.98181005  0.85492888    -0.05830
C1429       C  0.49937851  0.99980094  0.84088167     0.00110
C1430       C  0.01950757  0.51690721  0.85901934    -0.08360
C1431       C  0.04319127  0.53727908  0.84549628     0.62020
H1432       H  0.03166326  0.52867176  0.90473311     0.12710
H1433       H  0.46225748  0.96910672  0.84082493     0.12730
C1434       C  0.45199266  0.95970915  0.90059843     0.62250
F1435       F  0.05715478  0.55500217  0.86721105    -0.22910
F1436       F  0.02979818  0.55625121  0.82504091    -0.20240
F1437       F  0.06520891  0.52011848  0.83114200    -0.19920
F1438       F  0.43451993  0.97678660  0.92037509    -0.19970
F1439       F  0.46556367  0.93637031  0.91595562    -0.20290
F1440       F  0.43310771  0.94716597  0.87908586    -0.22970
C1441       C  0.01890007  0.89048233  0.72699991    -0.05810
C1442       C  0.50290397  0.90623092  0.74964265     0.00120
C1443       C  0.48798741  0.88994147  0.77255883    -0.08450
C1444       C  0.48869568  0.85821964  0.77130286    -0.05830
C1445       C  0.50445202  0.84241769  0.74851236     0.00110
C1446       C  0.01988767  0.85872301  0.72591725    -0.08360
C1447       C  0.03634366  0.84275677  0.70013865     0.62020
H1448       H  0.03030711  0.90336927  0.70984045     0.12710
H1449       H  0.47721301  0.84538836  0.78845738     0.12730
C1450       C  0.47269526  0.90594424  0.79903413     0.62250
F1451       F  0.04682611  0.86280369  0.67890019    -0.22910
F1452       F  0.01703662  0.82298830  0.68572456    -0.20240
F1453       F  0.06082512  0.82699314  0.71116476    -0.19920
F1454       F  0.44820043  0.92242702  0.78912398    -0.19970
F1455       F  0.49303140  0.92503834  0.81293852    -0.20290
F1456       F  0.46250145  0.88588765  0.82040495    -0.22970
C1457       C  0.01149063  0.60775052  0.77149080    -0.05810
C1458       C  0.49815151  0.59247962  0.74716617     0.00120
C1459       C  0.48440447  0.60926080  0.72387354    -0.08450
C1460       C  0.48401038  0.64100300  0.72623681    -0.05830
C1461       C  0.49802241  0.65621534  0.75032854     0.00110
C1462       C  0.01141718  0.63936214  0.77370111    -0.08360
C1463       C  0.02519745  0.65468090  0.80110227     0.62020
H1464       H  0.02219675  0.59467499  0.78881390     0.12710
H1465       H  0.47327840  0.65422220  0.70891049     0.12730
C1466       C  0.47174628  0.59378414  0.69594703     0.62250
F1467       F  0.03269143  0.63425830  0.82326930    -0.22910
F1468       F  0.50493340  0.67525264  0.81351082    -0.20240
F1469       F  0.05113155  0.66934712  0.79251653    -0.19920
F1470       F  0.44723720  0.57642404  0.70369322    -0.19970
F1471       F  0.99369141  0.57552441  0.68284307    -0.20290
F1472       F  0.46244911  0.61434161  0.67459630    -0.22970
O1473       O  0.52507968  0.50028658  0.29329096    -0.72970
O1474       O  0.52691075  0.99926844  0.20289077    -0.73950
O1475       O  0.52457987  0.04534869  0.24814269    -0.62570
O1476       O  0.52707467  0.45424434  0.24816772    -0.70980
O1477       O  0.97709612  0.45360187  0.24799831    -0.70530
O1478       O  0.97462890  0.04420526  0.24655307    -0.61790
O1479       O  0.97717451  0.99801628  0.20181778    -0.74290
O1480       O  0.97515676  0.49977356  0.29272373    -0.73070
Cu1481     Cu  0.52763651  0.99982708  0.24813155     1.04560
Cu1482     Cu  0.97428106  0.49885679  0.24722344     1.04330
C1483       C  0.49995067  0.50021307  0.30738512     0.93230
C1484       C  0.50246500  0.99875552  0.18784150     0.92370
C1485       C  0.49916203  0.05908121  0.24700416     0.84510
C1486       C  0.50233460  0.43961940  0.24867736     0.90780
O1487       O  0.52501662  0.24652935  0.20377296    -0.72970
O1488       O  0.52758464  0.24985441  0.29405699    -0.73950
O1489       O  0.52442599  0.20291273  0.25000439    -0.62570
O1490       O  0.52792177  0.29357132  0.24758658    -0.70980
O1491       O  0.97807134  0.29576440  0.25083066    -0.70530
O1492       O  0.97444500  0.20486788  0.24988181    -0.61790
O1493       O  0.97789052  0.25050133  0.29593755    -0.74290
O1494       O  0.97510516  0.25029398  0.20503341    -0.73070
Cu1495     Cu  0.52792959  0.24813848  0.24881329     1.04560
Cu1496     Cu  0.97460344  0.25044000  0.25049840     1.04330
C1497       C  0.99977269  0.24797904  0.19015037     0.93230
C1498       C  0.00331235  0.25038038  0.30955662     0.92370
C1499       C  0.99897269  0.18959134  0.25013614     0.84510
C1500       C  0.00350592  0.30898792  0.24879803     0.90780
O1501       O  0.77683075  0.99766886  0.29814839    -0.72970
O1502       O  0.78281723  0.00073760  0.20697457    -0.73950
O1503       O  0.77991893  0.04408025  0.25434277    -0.62570
O1504       O  0.77985457  0.45386976  0.25085201    -0.70980
O1505       O  0.73019239  0.45463019  0.24799949    -0.70530
O1506       O  0.73030875  0.04441267  0.25148798    -0.61790
O1507       O  0.73302494  0.00117910  0.20494635    -0.74290
O1508       O  0.72726265  0.99830772  0.29495462    -0.73070
Cu1509     Cu  0.78163006  0.99900679  0.25270613     1.04560
Cu1510     Cu  0.72855608  0.99957746  0.24976575     1.04330
C1511       C  0.75096365  0.99752486  0.31110914     0.93230
C1512       C  0.75855469  0.00217162  0.19155118     0.92370
C1513       C  0.75515815  0.05872892  0.25291540     0.84510
C1514       C  0.75494442  0.43978981  0.24902772     0.90780
O1515       O  0.77241038  0.24958110  0.20489428    -0.72970
O1516       O  0.77225670  0.24898979  0.29565868    -0.73950
O1517       O  0.77257146  0.20428331  0.24958536    -0.62570
O1518       O  0.77190984  0.29423161  0.25096804    -0.70980
O1519       O  0.72216515  0.29448619  0.25027471    -0.70530
O1520       O  0.72286848  0.20431273  0.24990658    -0.61790
O1521       O  0.72249015  0.24937310  0.29535453    -0.74290
O1522       O  0.72237478  0.24890365  0.20494170    -0.73070
Cu1523     Cu  0.77402295  0.24926936  0.25026552     1.04560
Cu1524     Cu  0.72075720  0.24928214  0.25014224     1.04330
C1525       C  0.74740779  0.24914902  0.19067599     0.93230
C1526       C  0.74719279  0.24915803  0.31000886     0.92370
C1527       C  0.74775983  0.18981388  0.24981212     0.84510
C1528       C  0.74698157  0.30883722  0.25054246     0.90780
O1529       O  0.99641754  0.47162103  0.45202081    -0.72970
O1530       O  0.99929402  0.47254785  0.04261044    -0.73950
O1531       O  0.95283581  0.47211659  0.99915406    -0.62570
O1532       O  0.54334443  0.47217612  0.49570117    -0.70980
O1533       O  0.54294590  0.02223263  0.49553894    -0.70530
O1534       O  0.95231087  0.02182338  0.99941625    -0.61790
O1535       O  0.99931389  0.02258864  0.04286367    -0.74290
O1536       O  0.49605642  0.02158436  0.45234092    -0.73070
Cu1537     Cu  0.99798567  0.47041339  0.99733663     1.04560
Cu1538     Cu  0.99765191  0.02376555  0.49752890     1.04330
C1539       C  0.99570546  0.99649250  0.43788647     0.93230
C1540       C  0.99942715  0.99767720  0.05696711     0.92370
C1541       C  0.93805663  0.99686108  0.99987910     0.84510
C1542       C  0.55734608  0.99721733  0.49511679     0.90780
O1543       O  0.49940919  0.22579448  0.04526562    -0.72970
O1544       O  0.50185279  0.22550749  0.45450028    -0.73950
O1545       O  0.54567127  0.22570941  0.50135257    -0.62570
O1546       O  0.95571121  0.22494349  0.99895766    -0.70980
O1547       O  0.95484956  0.27461548  0.99964835    -0.70530
O1548       O  0.54539186  0.27569158  0.50062480    -0.61790
O1549       O  0.50043054  0.27555060  0.45497702    -0.74290
O1550       O  0.49958004  0.27560159  0.04514498    -0.73070
Cu1551     Cu  0.50071262  0.22401657  0.49996037     1.04560
Cu1552     Cu  0.50006835  0.27680684  0.00007170     1.04330
C1553       C  0.49906326  0.25099065  0.05962364     0.93230
C1554       C  0.50103019  0.25051153  0.44053043     0.92370
C1555       C  0.55974674  0.25065216  0.50170398     0.84510
C1556       C  0.94076625  0.24954660  0.99909551     0.90780
O1557       O  0.74794872  0.47390467  0.45767195    -0.72970
O1558       O  0.74766350  0.48057763  0.04863876    -0.73950
O1559       O  0.70231456  0.47548623  0.00319930    -0.62570
O1560       O  0.79252482  0.47800463  0.50335812    -0.70980
O1561       O  0.79163065  0.02761764  0.50026753    -0.70530
O1562       O  0.70044604  0.02540463  0.00061270    -0.61790
O1563       O  0.74665550  0.03044769  0.04577802    -0.74290
O1564       O  0.74637387  0.02385175  0.45533616    -0.73070
Cu1565     Cu  0.74755267  0.47536147  0.00332505     1.04560
Cu1566     Cu  0.74612477  0.02849931  0.50040457     1.04330
C1567       C  0.74768989  0.49807953  0.44228617     0.93230
C1568       C  0.74764844  0.50656751  0.06149094     0.92370
C1569       C  0.68712911  0.49994181  0.00181905     0.84510
C1570       C  0.80656676  0.50298789  0.50203722     0.90780
O1571       O  0.75147838  0.22655787  0.45510634    -0.72970
O1572       O  0.74925006  0.22815703  0.04572099    -0.73950
O1573       O  0.70464357  0.22641221  0.99972831    -0.62570
O1574       O  0.79530574  0.22859614  0.50105289    -0.70980
O1575       O  0.79384690  0.27824567  0.50053869    -0.70530
O1576       O  0.70357934  0.27637567  0.99943462    -0.61790
O1577       O  0.74801334  0.27794130  0.04545314    -0.74290
O1578       O  0.74971045  0.27655095  0.45480084    -0.73070
Cu1579     Cu  0.75016075  0.22567004  0.00042760     1.04560
Cu1580     Cu  0.74870660  0.27898943  0.50008340     1.04330
C1581       C  0.75137184  0.25129662  0.44072313     0.93230
C1582       C  0.74865758  0.25334293  0.06005583     0.92370
C1583       C  0.68982518  0.25120654  0.99918794     0.84510
C1584       C  0.80909979  0.25381208  0.50065108     0.90780
C1585       C  0.89225164  0.27760146  0.00092100    -0.05810
C1586       C  0.90702396  0.24949858  0.99886619     0.00120
C1587       C  0.88933585  0.22327008  0.49669982    -0.08450
C1588       C  0.85774022  0.22607409  0.49751369    -0.05830
C1589       C  0.84286086  0.25410792  0.49994422     0.00110
C1590       C  0.86065176  0.28053871  0.00122174    -0.08360
C1591       C  0.84703983  0.31211251  0.00276012     0.62020
H1592       H  0.90582124  0.29771175  0.00230387     0.12710
H1593       H  0.84425938  0.20590414  0.49613745     0.12730
C1594       C  0.90303892  0.19181328  0.49340136     0.62250
F1595       F  0.86884172  0.33427903  0.00398322    -0.22910
F1596       F  0.82940817  0.31533516  0.02840129    -0.20240
F1597       F  0.82961617  0.31730799  0.47731207    -0.19920
F1598       F  0.91964812  0.18468993  0.01867641    -0.19970
F1599       F  0.92104455  0.19022506  0.46784880    -0.20290
F1600       F  0.88129894  0.16973429  0.49042846    -0.22970
C1601       C  0.64171732  0.23578808  0.02255688    -0.05810
C1602       C  0.65647489  0.25085484  0.99917223     0.00120
C1603       C  0.63929194  0.26543062  0.47656662    -0.08450
C1604       C  0.60774887  0.26577296  0.47905464    -0.05830
C1605       C  0.59296243  0.25056860  0.50218852     0.00110
C1606       C  0.61002402  0.23490354  0.02433286    -0.08360
C1607       C  0.59490050  0.21861734  0.05018640     0.62020
H1608       H  0.65529488  0.22475404  0.03948644     0.12710
H1609       H  0.59420371  0.27674688  0.46205103     0.12730
C1610       C  0.65392028  0.27728444  0.44823618     0.62250
F1611       F  0.61564821  0.20832324  0.07100384    -0.22910
F1612       F  0.57926163  0.19401707  0.03916399    -0.20240
F1613       F  0.57511270  0.23797387  0.06506499    -0.19920
F1614       F  0.66890182  0.25360180  0.43416475    -0.19970
F1615       F  0.67393824  0.30005108  0.45513211    -0.20290
F1616       F  0.63298207  0.28863803  0.42816518    -0.22970
C1617       C  0.85461992  0.47480127  0.49575372    -0.05810
C1618       C  0.84028679  0.50253331  0.50218639     0.00120
C1619       C  0.85835096  0.02803619  0.00946985    -0.08450
C1620       C  0.88995661  0.02481441  0.00831619    -0.05830
C1621       C  0.90430727  0.99715953  0.00134268     0.00110
C1622       C  0.88615401  0.47121955  0.49589616    -0.08360
C1623       C  0.89923088  0.43976237  0.49056270     0.62020
H1624       H  0.84071493  0.45549046  0.49062829     0.12710
H1625       H  0.90382963  0.04422013  0.01318131     0.12650
C1626       C  0.84487873  0.05825092  0.01919291     0.62250
F1627       F  0.87706625  0.41844277  0.48566547    -0.22910
F1628       F  0.91539277  0.43097978  0.51565010    -0.20240
F1629       F  0.91776261  0.43945732  0.46543287    -0.19920
F1630       F  0.82522783  0.05429489  0.04313749    -0.19970
F1631       F  0.82973509  0.07104956  0.99527109    -0.20290
F1632       F  0.86673541  0.07839349  0.02860173    -0.22970
C1633       C  0.63999254  0.50234655  0.47271117    -0.05810
C1634       C  0.65389197  0.49855173  0.00084725     0.00120
C1635       C  0.63579204  0.99302721  0.02668768    -0.08450
C1636       C  0.60432639  0.99294111  0.02362186    -0.05830
C1637       C  0.59052931  0.99724379  0.49574567     0.00110
C1638       C  0.60837938  0.50147837  0.46966762    -0.08360
C1639       C  0.59392811  0.50495736  0.43896358     0.62020
H1640       H  0.65410777  0.50601491  0.45309526     0.12710
H1641       H  0.59028746  0.98948507  0.04338868     0.12730
C1642       C  0.64771873  0.98801028  0.05821448     0.62250
F1643       F  0.61521684  0.00682815  0.41613352    -0.22910
F1644       F  0.57662041  0.03094450  0.43893199    -0.20240
F1645       F  0.57575717  0.48042900  0.43281026    -0.19920
F1646       F  0.63769872  0.01140152  0.07664448    -0.19970
F1647       F  0.67873566  0.48647029  0.05960887    -0.20290
F1648       F  0.63646486  0.46128426  0.06916583    -0.22970
C1649       C  0.75977102  0.27483100  0.14337279    -0.05810
C1650       C  0.74748881  0.24966537  0.15743607     0.00120
C1651       C  0.73594007  0.22569405  0.13978029    -0.08450
C1652       C  0.73658134  0.22805776  0.10815314    -0.05830
C1653       C  0.74840665  0.25351221  0.09373098     0.00110
C1654       C  0.76042484  0.27738791  0.11172804    -0.08360
C1655       C  0.77464921  0.30512288  0.09803531     0.62020
H1656       H  0.76858534  0.29273550  0.15759328     0.12710
H1657       H  0.72756231  0.20992223  0.09440090     0.12730
C1658       C  0.72380140  0.19743059  0.15434148     0.62250
F1659       F  0.78774349  0.32354427  0.11971883    -0.22910
F1660       F  0.75292627  0.32196043  0.08343659    -0.20240
F1661       F  0.79696745  0.29643399  0.07780658    -0.19920
F1662       F  0.69824362  0.20441674  0.17102006    -0.19970
F1663       F  0.74541165  0.18529613  0.17317014    -0.20290
F1664       F  0.71623772  0.17565241  0.13307438    -0.22970
C1665       C  0.77344928  0.23891439  0.35842505    -0.05810
C1666       C  0.74719482  0.24914818  0.34372679     0.00120
C1667       C  0.72252979  0.25993321  0.36161899    -0.08450
C1668       C  0.72621142  0.26225168  0.39299152    -0.05830
C1669       C  0.75157370  0.25075314  0.40745895     0.00110
C1670       C  0.77578954  0.23889562  0.39015402    -0.08360
C1671       C  0.80433152  0.22751685  0.40515782     0.62020
H1672       H  0.79209403  0.23044856  0.34487006     0.12710
H1673       H  0.70896052  0.27280794  0.40671399     0.12730
C1674       C  0.69226938  0.26886369  0.34837012     0.62250
F1675       F  0.82614825  0.21914524  0.38418364    -0.22910
F1676       F  0.79788962  0.20268293  0.42248547    -0.20240
F1677       F  0.81613784  0.24996200  0.42348361    -0.19920
F1678       F  0.67944036  0.24423937  0.33403228    -0.19970
F1679       F  0.69617048  0.29183523  0.32814920    -0.20290
F1680       F  0.67207060  0.27892248  0.37024496    -0.22970
C1681       C  0.77692699  0.49562837  0.10703123    -0.05810
C1682       C  0.75088421  0.00868419  0.09466634     0.00120
C1683       C  0.72966251  0.02296895  0.11426010    -0.08450
C1684       C  0.73382768  0.02064041  0.14552386    -0.05830
C1685       C  0.75886639  0.00594028  0.15810397     0.00110
C1686       C  0.78197852  0.49506362  0.13844720    -0.08360
C1687       C  0.81172567  0.48299536  0.15012004     0.62020
H1688       H  0.79357290  0.48606577  0.09164260     0.12710
H1689       H  0.71694694  0.03058523  0.16045780     0.12730
C1690       C  0.70191070  0.04044724  0.10453114     0.62250
F1691       F  0.83083249  0.47382695  0.12691422    -0.22910
F1692       F  0.80660672  0.45853639  0.16825062    -0.20240
F1693       F  0.82625671  0.00529263  0.16649250    -0.19920
F1694       F  0.67671885  0.52770534  0.11751104    -0.19970
F1695       F  0.69776088  0.04112038  0.07372952    -0.20290
F1696       F  0.70417015  0.06985838  0.11494044    -0.22970
C1697       C  0.72213970  0.49276632  0.39317567    -0.05810
C1698       C  0.74903538  0.49651178  0.40904543     0.00120
C1699       C  0.77635875  0.00020836  0.39317400    -0.08450
C1700       C  0.77584878  0.00008393  0.36140577    -0.05830
C1701       C  0.74885916  0.99673862  0.34495559     0.00110
C1702       C  0.72128871  0.49292182  0.36133791    -0.08360
C1703       C  0.69088957  0.48913741  0.34597433     0.62020
H1704       H  0.70159677  0.49024140  0.40617507     0.12710
H1705       H  0.79678603  0.00303207  0.34922357     0.12730
C1706       C  0.80588905  0.00429297  0.40994990     0.62250
F1707       F  0.66781734  0.48461922  0.36654524    -0.22910
F1708       F  0.69174282  0.46437196  0.32668596    -0.20240
F1709       F  0.68381624  0.01481141  0.33002717    -0.19920
F1710       F  0.81103108  0.47976227  0.42821346    -0.19970
F1711       F  0.80448413  0.03015157  0.42767769    -0.20290
F1712       F  0.83014313  0.00682413  0.39040512    -0.22970
C1713       C  0.72600517  0.39279775  0.25484381    -0.05810
C1714       C  0.75400077  0.40618604  0.24882533     0.00120
C1715       C  0.77936118  0.38727182  0.24275042    -0.08450
C1716       C  0.77557716  0.35589603  0.24353469    -0.05830
C1717       C  0.74763898  0.34247136  0.24983980     0.00110
C1718       C  0.72211122  0.36141568  0.25522873    -0.08360
C1719       C  0.69080551  0.34925423  0.26167437     0.62020
H1720       H  0.70680412  0.40730802  0.25946246     0.12710
H1721       H  0.79484993  0.34144690  0.23903822     0.12730
C1722       C  0.81030272  0.39952715  0.23490102     0.62250
F1723       F  0.66998227  0.37197348  0.26762287    -0.22910
F1724       F  0.69174076  0.33114159  0.28669268    -0.20240
F1725       F  0.68056561  0.33295866  0.23698545    -0.19920
F1726       F  0.82209424  0.41489146  0.25946978    -0.19970
F1727       F  0.80795542  0.41856923  0.21064365    -0.20290
F1728       F  0.83057311  0.37690986  0.22689614    -0.22970
C1729       C  0.77700790  0.14207827  0.24969824    -0.05810
C1730       C  0.74847486  0.15616951  0.25027276     0.00120
C1731       C  0.72228914  0.13786109  0.25167155    -0.08450
C1732       C  0.72602647  0.10645761  0.25291793    -0.05830
C1733       C  0.75454867  0.09236793  0.25245160     0.00110
C1734       C  0.78072089  0.11063405  0.25062515    -0.08360
C1735       C  0.81258616  0.09765233  0.24941396     0.62020
H1736       H  0.79683883  0.15604429  0.24848809     0.12710
H1737       H  0.70619707  0.09250285  0.25424413     0.12730
C1738       C  0.69034271  0.15070082  0.25184897     0.62250
F1739       F  0.83424898  0.11983193  0.24709184    -0.22910
F1740       F  0.81574079  0.07879112  0.22446131    -0.20240
F1741       F  0.81846336  0.08190142  0.27551299    -0.19920
F1742       F  0.68544877  0.16692179  0.22584226    -0.19970
F1743       F  0.68609293  0.16905271  0.27701651    -0.20290
F1744       F  0.66868504  0.12840352  0.25281883    -0.22970
C1745       C  0.98583911  0.27251143  0.14261109    -0.05810
C1746       C  0.49921114  0.24786958  0.15687253     0.00120
C1747       C  0.51203942  0.22419175  0.13932523    -0.08450
C1748       C  0.51126954  0.22621580  0.10772603    -0.05830
C1749       C  0.49865329  0.25127187  0.09319719     0.00110
C1750       C  0.98579970  0.27509669  0.11097345    -0.08360
C1751       C  0.97200626  0.30313613  0.09708992     0.62020
H1752       H  0.97606366  0.29020381  0.15666524     0.12710
H1753       H  0.52110192  0.20826282  0.09405491     0.12730
C1754       C  0.52557207  0.19644762  0.15385645     0.62250
F1755       F  0.95835987  0.32166428  0.11858779    -0.22910
F1756       F  0.95028160  0.29504988  0.07621747    -0.20240
F1757       F  0.49426707  0.31969820  0.08315938    -0.19920
F1758       F  0.00466823  0.18393820  0.17306852    -0.19970
F1759       F  0.55101425  0.20419801  0.17002993    -0.20290
F1760       F  0.53379251  0.17468731  0.13264548    -0.22970
C1761       C  0.52851905  0.24533933  0.39245854    -0.05810
C1762       C  0.50115522  0.25060227  0.40732604     0.00120
C1763       C  0.97487547  0.25663558  0.39056701    -0.08450
C1764       C  0.97673175  0.25623741  0.35885983    -0.05830
C1765       C  0.50416351  0.25084079  0.34340812     0.00110
C1766       C  0.53087194  0.24593280  0.36074612    -0.08360
C1767       C  0.56192451  0.24160299  0.34660021     0.62020
H1768       H  0.54826776  0.24128136  0.40618187     0.12710
H1769       H  0.95652839  0.26048630  0.34593048     0.12730
C1770       C  0.94501705  0.26325721  0.40628066     0.62250
F1771       F  0.58408741  0.23707590  0.36805222    -0.22910
F1772       F  0.56964620  0.26696709  0.33057662    -0.20240
F1773       F  0.56199226  0.21667598  0.32765281    -0.19920
F1774       F  0.94748318  0.28903366  0.42395596    -0.19970
F1775       F  0.93735081  0.23935766  0.42441988    -0.20290
F1776       F  0.92187800  0.26771960  0.38588901    -0.22970
C1777       C  0.97665992  0.48945706  0.13900093    -0.05810
C1778       C  0.00299553  0.99878070  0.15407685     0.00120
C1779       C  0.52820858  0.00832419  0.13655158    -0.08450
C1780       C  0.52591130  0.00776058  0.10481732    -0.05830
C1781       C  0.99979728  0.99794673  0.09021621     0.00110
C1782       C  0.97460312  0.48894091  0.10733665    -0.08360
C1783       C  0.94542485  0.47960430  0.09210791     0.62020
H1784       H  0.95749705  0.48232181  0.15223409     0.12710
H1785       H  0.54473453  0.01465737  0.09093107     0.12730
C1786       C  0.55739912  0.01938359  0.15068088     0.62250
F1787       F  0.92297053  0.47343907  0.11287864    -0.22910
F1788       F  0.95026571  0.45398102  0.07463517    -0.20240
F1789       F  0.93526675  0.00260234  0.07389559    -0.19920
F1790       F  0.57143853  0.49603997  0.16564496    -0.19970
F1791       F  0.55140692  0.04290291  0.17066281    -0.20290
F1792       F  0.57746329  0.02980574  0.12924579    -0.22970
C1793       C  0.51690916  0.01540162  0.39055355    -0.05810
C1794       C  0.99595397  0.99665148  0.40451492     0.00120
C1795       C  0.97588169  0.47946118  0.38654858    -0.08450
C1796       C  0.97765039  0.48179130  0.35492911    -0.05830
C1797       C  0.99939558  0.49978341  0.34088215     0.00110
C1798       C  0.51953403  0.01687852  0.35901980    -0.08360
C1799       C  0.54320838  0.03726206  0.34549722     0.62020
H1800       H  0.53171608  0.02861074  0.40473482     0.12710
H1801       H  0.96226585  0.46909891  0.34082553     0.12730
C1802       C  0.95201925  0.45967984  0.40059918     0.62250
F1803       F  0.55717724  0.05497650  0.36721553    -0.22910
F1804       F  0.52980339  0.05624315  0.32505704    -0.20240
F1805       F  0.56522364  0.02011307  0.33112533    -0.19920
F1806       F  0.93456130  0.47675571  0.42039068    -0.19970
F1807       F  0.96558765  0.43632926  0.41594090    -0.20290
F1808       F  0.93312039  0.44715389  0.37908909    -0.22970
C1809       C  0.51889837  0.39048135  0.22699388    -0.05810
C1810       C  0.00290270  0.40622895  0.24963779     0.00120
C1811       C  0.98798728  0.38993817  0.27255406    -0.08450
C1812       C  0.98869579  0.35821593  0.27129619    -0.05830
C1813       C  0.00445088  0.34241556  0.24850315     0.00110
C1814       C  0.51988555  0.35872210  0.22590928    -0.08360
C1815       C  0.53634051  0.34275560  0.20013028     0.62020
H1816       H  0.53030509  0.40336891  0.20983471     0.12710
H1817       H  0.97721408  0.34538336  0.28845040     0.12730
C1818       C  0.97269630  0.40594024  0.29903086     0.62250
F1819       F  0.54682316  0.36280283  0.17889246    -0.22910
F1820       F  0.51703264  0.32298661  0.18571608    -0.20240
F1821       F  0.56082211  0.32699207  0.21115656    -0.19920
F1822       F  0.94820062  0.42242316  0.28912280    -0.19970
F1823       F  0.99303293  0.42503438  0.31293453    -0.20290
F1824       F  0.96250400  0.38588315  0.32040189    -0.22970
C1825       C  0.51149448  0.10774934  0.27149428    -0.05810
C1826       C  0.99815123  0.09247679  0.24717249     0.00120
C1827       C  0.98439546  0.10925545  0.22388362    -0.08450
C1828       C  0.98398962  0.14099686  0.22625170    -0.05830
C1829       C  0.99801788  0.15621237  0.25033243     0.00110
C1830       C  0.51142112  0.13936157  0.27370134    -0.08360
C1831       C  0.52520010  0.15468443  0.30110090     0.62020
H1832       H  0.52220305  0.09467509  0.28881693     0.12710
H1833       H  0.97323272  0.15421164  0.20893830     0.12730
C1834       C  0.97174239  0.09377795  0.19595448     0.62250
F1835       F  0.53269392  0.13426450  0.32327010    -0.22910
F1836       F  0.00493335  0.17525576  0.31350629    -0.20240
F1837       F  0.55113361  0.16935288  0.29251572    -0.19920
F1838       F  0.94723510  0.07641354  0.20369627    -0.19970
F1839       F  0.49369173  0.07552216  0.18285183    -0.20290
F1840       F  0.96244560  0.11433505  0.17460312    -0.22970
O1841       O  0.52507272  0.50029308  0.79329500    -0.72970
O1842       O  0.52692036  0.99926388  0.70289487    -0.73950
O1843       O  0.52457981  0.04535082  0.74814151    -0.62570
O1844       O  0.52707625  0.45424606  0.74817608    -0.70980
O1845       O  0.97709767  0.45360320  0.74799646    -0.70530
O1846       O  0.97462942  0.04420689  0.74654230    -0.61790
O1847       O  0.97718446  0.99801160  0.70181147    -0.74290
O1848       O  0.97514995  0.49977929  0.79271785    -0.73070
Cu1849     Cu  0.52763753  0.99982868  0.74813568     1.04560
Cu1850     Cu  0.97428238  0.49885785  0.74721695     1.04330
C1851       C  0.49994094  0.50022149  0.80738427     0.93230
C1852       C  0.50247793  0.99874703  0.68784036     0.92370
C1853       C  0.49916211  0.05908335  0.74699736     0.84510
C1854       C  0.50233612  0.43962106  0.74868111     0.90780
O1855       O  0.52499534  0.24654830  0.70377162    -0.72970
O1856       O  0.52759463  0.24983377  0.79405809    -0.73950
O1857       O  0.52442707  0.20291508  0.74999437    -0.62570
O1858       O  0.52792044  0.29357237  0.74759529    -0.70980
O1859       O  0.97807126  0.29576802  0.75085852    -0.70530
O1860       O  0.97444574  0.20486983  0.74989080    -0.61790
O1861       O  0.97790029  0.25048579  0.79594975    -0.74290
O1862       O  0.97508433  0.25031883  0.70505874    -0.73070
Cu1863     Cu  0.52792702  0.24813927  0.74881266     1.04560
Cu1864     Cu  0.97460100  0.25044356  0.75051800     1.04330
C1865       C  0.99974494  0.24802413  0.69016282     0.93230
C1866       C  0.00332459  0.25033907  0.80956202     0.92370
C1867       C  0.99897456  0.18959379  0.75013540     0.84510
C1868       C  0.00350578  0.30899017  0.74881292     0.90780
O1869       O  0.77682157  0.99770065  0.79816057    -0.72970
O1870       O  0.78284360  0.00070048  0.70698390    -0.73950
O1871       O  0.77992793  0.04407769  0.75432465    -0.62570
O1872       O  0.77986033  0.45386470  0.75089331    -0.70980
O1873       O  0.73019921  0.45462555  0.74802250    -0.70530
O1874       O  0.73031864  0.04440809  0.75145464    -0.61790
O1875       O  0.73305202  0.00114337  0.70494066    -0.74290
O1876       O  0.72725467  0.99833669  0.79494951    -0.73070
Cu1877     Cu  0.78163819  0.99900319  0.75271800     1.04560
Cu1878     Cu  0.72856526  0.99957317  0.74975971     1.04330
C1879       C  0.75095004  0.99757184  0.81111317     0.93230
C1880       C  0.75858587  0.00212352  0.69155184     0.92370
C1881       C  0.75516716  0.05872520  0.75288614     0.84510
C1882       C  0.75495018  0.43978492  0.74906467     0.90780
O1883       O  0.77240623  0.24958083  0.70489501    -0.72970
O1884       O  0.77225426  0.24898162  0.79566000    -0.73950
O1885       O  0.77257124  0.20428024  0.74958148    -0.62570
O1886       O  0.77190509  0.29422625  0.75097501    -0.70980
O1887       O  0.72216041  0.29448181  0.75028341    -0.70530
O1888       O  0.72286826  0.20430742  0.74990310    -0.61790
O1889       O  0.72248767  0.24936350  0.79535685    -0.74290
O1890       O  0.72237069  0.24890300  0.70494384    -0.73070
Cu1891     Cu  0.77401996  0.24926529  0.75026672     1.04560
Cu1892     Cu  0.72075422  0.24927704  0.75014461     1.04330
C1893       C  0.74740321  0.24914833  0.69067727     0.93230
C1894       C  0.74719060  0.24914919  0.81001067     0.92370
C1895       C  0.74776042  0.18980975  0.74980571     0.84510
C1896       C  0.74697714  0.30883240  0.75055386     0.90780
O1897       O  0.99635893  0.47168719  0.95202739    -0.72970
O1898       O  0.99935380  0.47247897  0.54260991    -0.73950
O1899       O  0.95290021  0.47202323  0.49915027    -0.62570
O1900       O  0.54328975  0.47223593  0.99570649    -0.70980
O1901       O  0.54289851  0.02229225  0.99554059    -0.70530
O1902       O  0.95235210  0.02172996  0.49941403    -0.61790
O1903       O  0.99935668  0.02251998  0.54285911    -0.74290
O1904       O  0.49601212  0.02165011  0.95233890    -0.73070
Cu1905     Cu  0.99804599  0.47034155  0.49733257     1.04560
Cu1906     Cu  0.99760850  0.02383712  0.99753038     1.04330
C1907       C  0.99565473  0.99655539  0.93788830     0.93230
C1908       C  0.99947737  0.99761039  0.55696452     0.92370
C1909       C  0.93810976  0.99675990  0.49987584     0.84510
C1910       C  0.55729537  0.99727583  0.99512083     0.90780
O1911       O  0.49940280  0.22630717  0.54524643    -0.72970
O1912       O  0.50180935  0.22491359  0.95448086    -0.73950
O1913       O  0.54568768  0.22513258  0.00133195    -0.62570
O1914       O  0.95575985  0.22546969  0.49892810    -0.70980
O1915       O  0.95481034  0.27513875  0.49968754    -0.70530
O1916       O  0.54537635  0.27511561  0.00056422    -0.61790
O1917       O  0.50043983  0.27495805  0.95496030    -0.74290
O1918       O  0.49955545  0.27611729  0.54522128    -0.73070
Cu1919     Cu  0.50069454  0.22345068  0.99996366     1.04560
Cu1920     Cu  0.50005295  0.27737196  0.50012113     1.04330
C1921       C  0.49904859  0.25147298  0.55965318     0.93230
C1922       C  0.50100779  0.24992416  0.94051402     0.92370
C1923       C  0.55974683  0.25009118  0.00165275     0.84510
C1924       C  0.94077176  0.25004063  0.49909543     0.90780
O1925       O  0.74789852  0.47407550  0.95767819    -0.72970
O1926       O  0.74771418  0.48041851  0.54863708    -0.73950
O1927       O  0.70236111  0.47533027  0.50319446    -0.62570
O1928       O  0.79247026  0.47817757  0.00336166    -0.70980
O1929       O  0.79158041  0.02779130  0.00027967    -0.70530
O1930       O  0.70050434  0.02524880  0.50060397    -0.61790
O1931       O  0.74671241  0.03028783  0.54576438    -0.74290
O1932       O  0.74632146  0.02402257  0.95534327    -0.73070
Cu1933     Cu  0.74760293  0.47519525  0.50332117     1.04560
Cu1934     Cu  0.74606960  0.02866582  0.00041522     1.04330
C1935       C  0.74763950  0.49825019  0.94229278     0.93230
C1936       C  0.74770102  0.50641177  0.56148308     0.92370
C1937       C  0.68718142  0.49978999  0.50181215     0.84510
C1938       C  0.80651467  0.50315914  0.00204318     0.90780
O1939       O  0.75146479  0.22655255  0.95510655    -0.72970
O1940       O  0.74925895  0.22815866  0.54571878    -0.73950
O1941       O  0.70463307  0.22642664  0.49972105    -0.62570
O1942       O  0.79526893  0.22855409  0.00105375    -0.70980
O1943       O  0.79389152  0.27820678  0.00053340    -0.70530
O1944       O  0.70359028  0.27639051  0.49942589    -0.61790
O1945       O  0.74799089  0.27794233  0.54545427    -0.74290
O1946       O  0.74972122  0.27654647  0.95480327    -0.73070
Cu1947     Cu  0.75017343  0.22568026  0.50042541     1.04560
Cu1948     Cu  0.74872332  0.27898016  0.00008416     1.04330
C1949       C  0.75137088  0.25129263  0.94072452     0.93230
C1950       C  0.74864978  0.25334271  0.56005550     0.92370
C1951       C  0.68982625  0.25123214  0.49917219     0.84510
C1952       C  0.80910450  0.25374276  0.00064733     0.90780
C1953       C  0.89216822  0.27794241  0.50090266    -0.05810
C1954       C  0.90703084  0.24989094  0.49885815     0.00120
C1955       C  0.88924187  0.22294304  0.99668890    -0.08450
C1956       C  0.85765636  0.22585658  0.99749815    -0.05830
C1957       C  0.84286689  0.25394095  0.99993804     0.00110
C1958       C  0.86055894  0.28076928  0.50121565    -0.08360
C1959       C  0.84684387  0.31230039  0.50275629     0.62020
H1960       H  0.90567428  0.29809691  0.50226963     0.12710
H1961       H  0.84411272  0.20573016  0.99610922     0.12730
C1962       C  0.90284093  0.19144590  0.99336893     0.62250
F1963       F  0.86857085  0.33453917  0.50397989    -0.22910
F1964       F  0.82920656  0.31546596  0.52839995    -0.20240
F1965       F  0.82983069  0.31717407  0.97731499    -0.19920
F1966       F  0.91988408  0.18513570  0.51870577    -0.19970
F1967       F  0.92085863  0.18982406  0.96782696    -0.20290
F1968       F  0.88102677  0.16944342  0.99036111    -0.22970
C1969       C  0.64166730  0.23590832  0.52250688    -0.05810
C1970       C  0.65647683  0.25094199  0.49913805     0.00120
C1971       C  0.63923885  0.26522204  0.97656191    -0.08450
C1972       C  0.60769098  0.26533464  0.97897836    -0.05830
C1973       C  0.59296140  0.25008695  0.00212051     0.00110
C1974       C  0.60997080  0.23518747  0.52431200    -0.08360
C1975       C  0.59479362  0.21882018  0.55008355     0.62020
H1976       H  0.65520575  0.22476144  0.53939290     0.12710
H1977       H  0.59410395  0.27619476  0.96193435     0.12730
C1978       C  0.65383657  0.27721001  0.94827568     0.62250
F1979       F  0.61550679  0.20836658  0.57085450    -0.22910
F1980       F  0.57909599  0.19431109  0.53893905    -0.20240
F1981       F  0.57505232  0.23815635  0.56505068    -0.19920
F1982       F  0.66891763  0.25362334  0.93415293    -0.19970
F1983       F  0.67375939  0.30003833  0.95524853    -0.20290
F1984       F  0.63286811  0.28854188  0.92822313    -0.22970
C1985       C  0.85455424  0.47495381  0.99575297    -0.05810
C1986       C  0.84023523  0.50269329  0.00218653     0.00120
C1987       C  0.85838876  0.02788588  0.50947182    -0.08450
C1988       C  0.88999533  0.02468273  0.50831677    -0.05830
C1989       C  0.90436086  0.99703743  0.50134010     0.00110
C1990       C  0.88608571  0.47135315  0.99589846    -0.08360
C1991       C  0.89914381  0.43988775  0.99057023     0.62020
H1992       H  0.84063977  0.45565038  0.99062621     0.12710
H1993       H  0.90385748  0.04409616  0.51318243     0.12650
C1994       C  0.84490104  0.05809273  0.51919861     0.62250
F1995       F  0.87696656  0.41858113  0.98567376    -0.22910
F1996       F  0.91529774  0.43109912  0.01566048    -0.20240
F1997       F  0.91767790  0.43956787  0.96544228    -0.19920
F1998       F  0.82524708  0.05412292  0.54313822    -0.19970
F1999       F  0.82975738  0.07089012  0.49527606    -0.20290
F2000       F  0.86674651  0.07824305  0.52861681    -0.22970
C2001       C  0.63993807  0.50246987  0.97271899    -0.05810
C2002       C  0.65394378  0.49841420  0.50083891     0.00120
C2003       C  0.63583905  0.99291227  0.52668094    -0.08450
C2004       C  0.60437321  0.99286471  0.52361779    -0.05830
C2005       C  0.59047921  0.99730635  0.99574883     0.00110
C2006       C  0.60832634  0.50156705  0.96967333    -0.08360
C2007       C  0.59387314  0.50503845  0.93896945     0.62020
H2008       H  0.65405027  0.50615366  0.95310410     0.12710
H2009       H  0.59033143  0.98942233  0.54338530     0.12730
C2010       C  0.64776077  0.98787849  0.55820647     0.62250
F2011       F  0.61516064  0.00693612  0.91614101    -0.22910
F2012       F  0.57653972  0.03100850  0.93894305    -0.20240
F2013       F  0.57572731  0.48049286  0.93280977    -0.19920
F2014       F  0.63776745  0.01127921  0.57663841    -0.19970
F2015       F  0.67877629  0.48630173  0.55959971    -0.20290
F2016       F  0.63647533  0.46116501  0.56915586    -0.22970
C2017       C  0.75976309  0.27482910  0.64337264    -0.05810
C2018       C  0.74748301  0.24966335  0.65743697     0.00120
C2019       C  0.73593594  0.22569040  0.63978184    -0.08450
C2020       C  0.73657677  0.22805303  0.60815391    -0.05830
C2021       C  0.74839868  0.25350901  0.59373113     0.00110
C2022       C  0.76041604  0.27738484  0.61172795    -0.08360
C2023       C  0.77464342  0.30511667  0.59803361     0.62020
H2024       H  0.76857730  0.29273437  0.65759221     0.12710
H2025       H  0.72755989  0.20991632  0.59440174     0.12730
C2026       C  0.72379871  0.19742732  0.65434511     0.62250
F2027       F  0.78773800  0.32353927  0.61971568    -0.22910
F2028       F  0.75292356  0.32195470  0.58343097    -0.20240
F2029       F  0.79696203  0.29642138  0.57780840    -0.19920
F2030       F  0.69824104  0.20441368  0.67102386    -0.19970
F2031       F  0.74540963  0.18529483  0.67317436    -0.20290
F2032       F  0.71623537  0.17564759  0.63307958    -0.22970
C2033       C  0.77344835  0.23890913  0.85842696    -0.05810
C2034       C  0.74719333  0.24914131  0.84372859     0.00120
C2035       C  0.72252984  0.25993043  0.86162059    -0.08450
C2036       C  0.72621414  0.26225491  0.89299243    -0.05830
C2037       C  0.75157416  0.25075213  0.90746039     0.00110
C2038       C  0.77578949  0.23889330  0.89015589    -0.08360
C2039       C  0.80433200  0.22751676  0.90516019     0.62020
H2040       H  0.79209268  0.23044204  0.84487215     0.12710
H2041       H  0.70896817  0.27282117  0.90671364     0.12730
C2042       C  0.69226897  0.26886030  0.84837227     0.62250
F2043       F  0.82614774  0.21914197  0.88418620    -0.22910
F2044       F  0.79789047  0.20268571  0.92249197    -0.20240
F2045       F  0.81613933  0.24996452  0.92348216    -0.19920
F2046       F  0.67943883  0.24423533  0.83403647    -0.19970
F2047       F  0.69617003  0.29183020  0.82814955    -0.20290
F2048       F  0.67207104  0.27892080  0.87024736    -0.22970
C2049       C  0.77697129  0.49550112  0.60703850    -0.05810
C2050       C  0.75092807  0.00854180  0.59465864     0.00120
C2051       C  0.72970649  0.02284792  0.61423708    -0.08450
C2052       C  0.73386789  0.02054928  0.64550348    -0.05830
C2053       C  0.75890572  0.00586352  0.65810067     0.00110
C2054       C  0.78202290  0.49497474  0.63845615    -0.08360
C2055       C  0.81177898  0.48294351  0.65014310     0.62020
H2056       H  0.79362050  0.48592718  0.59166043     0.12710
H2057       H  0.71698581  0.03050902  0.66042610     0.12730
C2058       C  0.70196120  0.04032553  0.60448937     0.62250
F2059       F  0.83089566  0.47377003  0.62694735    -0.22910
F2060       F  0.80668031  0.45849813  0.66829664    -0.20240
F2061       F  0.82628863  0.00526914  0.66649602    -0.19920
F2062       F  0.67676570  0.52761555  0.61749421    -0.19970
F2063       F  0.69780389  0.04095642  0.57368745    -0.20290
F2064       F  0.70423854  0.06974948  0.61485622    -0.22970
C2065       C  0.72209763  0.49292375  0.89317835    -0.05810
C2066       C  0.74898983  0.49667715  0.90905217     0.00120
C2067       C  0.77631916  0.00034798  0.89318449    -0.08450
C2068       C  0.77581893  0.00018838  0.86141571    -0.05830
C2069       C  0.74883401  0.99682807  0.84496070     0.00110
C2070       C  0.72125697  0.49304038  0.86133950    -0.08360
C2071       C  0.69086220  0.48924189  0.84597078     0.62020
H2072       H  0.70155039  0.49041617  0.90617469     0.12710
H2073       H  0.79676095  0.00311643  0.84923638     0.12730
C2074       C  0.80584597  0.00443864  0.90996491     0.62250
F2075       F  0.66778197  0.48475644  0.86654059    -0.22910
F2076       F  0.69171683  0.46445053  0.82671616    -0.20240
F2077       F  0.68379977  0.01489509  0.82998593    -0.19920
F2078       F  0.81097566  0.47992280  0.92825157    -0.19970
F2079       F  0.80444342  0.03031284  0.92766983    -0.20290
F2080       F  0.83010634  0.00694544  0.89042428    -0.22970
C2081       C  0.72600697  0.39279409  0.75487598    -0.05810
C2082       C  0.75400508  0.40618125  0.74886610     0.00120
C2083       C  0.77936480  0.38726605  0.74279205    -0.08450
C2084       C  0.77557778  0.35589071  0.74356807    -0.05830
C2085       C  0.74763663  0.34246679  0.74986132     0.00110
C2086       C  0.72210933  0.36141201  0.75524916    -0.08360
C2087       C  0.69079985  0.34925148  0.76167816     0.62020
H2088       H  0.70680638  0.40730528  0.75949382     0.12710
H2089       H  0.79485051  0.34144135  0.73907238     0.12730
C2090       C  0.81030811  0.39951993  0.73494828     0.62250
F2091       F  0.66997605  0.37197113  0.76762289    -0.22910
F2092       F  0.69172224  0.33113255  0.78669224    -0.20240
F2093       F  0.68056957  0.33296262  0.73698070    -0.19920
F2094       F  0.82209687  0.41488257  0.75951935    -0.19970
F2095       F  0.80796456  0.41856300  0.71069198    -0.20290
F2096       F  0.83057863  0.37690241  0.72694440    -0.22970
C2097       C  0.77701178  0.14207614  0.74968158    -0.05810
C2098       C  0.74847768  0.15616545  0.75025871     0.00120
C2099       C  0.72229313  0.13785520  0.75165256    -0.08450
C2100       C  0.72603242  0.10645156  0.75288839    -0.05830
C2101       C  0.75455565  0.09236390  0.75242130     0.00110
C2102       C  0.78072683  0.11063196  0.75060280    -0.08360
C2103       C  0.81259305  0.09765236  0.74939663     0.62020
H2104       H  0.79684197  0.15604366  0.74847614     0.12710
H2105       H  0.70620378  0.09249526  0.75420985     0.12730
C2106       C  0.69034600  0.15069326  0.75183789     0.62250
F2107       F  0.83425474  0.11983348  0.74707817    -0.22910
F2108       F  0.81575287  0.07879121  0.72444460    -0.20240
F2109       F  0.81846703  0.08190187  0.77549667    -0.19920
F2110       F  0.68544716  0.16692057  0.72583617    -0.19970
F2111       F  0.68609911  0.16903866  0.77701064    -0.20290
F2112       F  0.66868967  0.12839456  0.75280562    -0.22970
C2113       C  0.98577733  0.27269191  0.64270972    -0.05810
C2114       C  0.49916839  0.24800994  0.65688780     0.00120
C2115       C  0.51201031  0.22439891  0.63926311    -0.08450
C2116       C  0.51127030  0.22655017  0.60767325    -0.05830
C2117       C  0.49864241  0.25165346  0.59322804     0.00110
C2118       C  0.98574370  0.27539162  0.61108311    -0.08360
C2119       C  0.97189543  0.30344866  0.59729364     0.62020
H2120       H  0.97597624  0.29032388  0.65682242     0.12710
H2121       H  0.52112508  0.20865325  0.59394428     0.12730
C2122       C  0.52551702  0.19658926  0.65369797     0.62250
F2123       F  0.95820190  0.32187296  0.61885144    -0.22910
F2124       F  0.95019539  0.29538482  0.57638754    -0.20240
F2125       F  0.49412387  0.32010437  0.58342664    -0.19920
F2126       F  0.00459949  0.18402407  0.67286119    -0.19970
F2127       F  0.55096251  0.20426062  0.66990370    -0.20290
F2128       F  0.53372273  0.17489814  0.63240970    -0.22970
C2129       C  0.52848952  0.24484348  0.89243408    -0.05810
C2130       C  0.50112558  0.25006709  0.90731389     0.00120
C2131       C  0.97488308  0.25633181  0.89058046    -0.08450
C2132       C  0.97674947  0.25608467  0.85887569    -0.05830
C2133       C  0.50417552  0.25070014  0.84341082     0.00110
C2134       C  0.53087199  0.24568239  0.86073335    -0.08360
C2135       C  0.56194650  0.24153248  0.84658743     0.62020
H2136       H  0.54822369  0.24066902  0.90614308     0.12710
H2137       H  0.95656613  0.26046960  0.84596048     0.12730
C2138       C  0.94506386  0.26308982  0.90631770     0.62250
F2139       F  0.58411717  0.23701121  0.86803258    -0.22910
F2140       F  0.56957350  0.26699601  0.83067453    -0.20240
F2141       F  0.56212379  0.21668423  0.82753692    -0.19920
F2142       F  0.94768092  0.28882330  0.92403301    -0.19970
F2143       F  0.93726541  0.23920558  0.92442104    -0.20290
F2144       F  0.92194370  0.26772091  0.88594355    -0.22970
C2145       C  0.97668411  0.48943355  0.63899592    -0.05810
C2146       C  0.00301676  0.99875995  0.65407555     0.00120
C2147       C  0.52823604  0.00829273  0.63655320    -0.08450
C2148       C  0.52595123  0.00770687  0.60481811    -0.05830
C2149       C  0.99984086  0.99788809  0.59021372     0.00110
C2150       C  0.97463712  0.48890284  0.60733095    -0.08360
C2151       C  0.94545838  0.47957659  0.59209705     0.62020
H2152       H  0.95751493  0.48231023  0.65222664     0.12710
H2153       H  0.54478006  0.01459359  0.59093421     0.12730
C2154       C  0.55741903  0.01936721  0.65068642     0.62250
F2155       F  0.92299651  0.47342411  0.61286361    -0.22910
F2156       F  0.95029226  0.45394932  0.57462841    -0.20240
F2157       F  0.93531480  0.00257673  0.57387945    -0.19920
F2158       F  0.57146077  0.49603514  0.66566602    -0.19970
F2159       F  0.55141378  0.04289422  0.67065552    -0.20290
F2160       F  0.57748641  0.02978550  0.62925239    -0.22970
C2161       C  0.51686615  0.01545078  0.89055291    -0.05810
C2162       C  0.99590953  0.99670376  0.90451588     0.00120
C2163       C  0.97585242  0.47949473  0.88654917    -0.08450
C2164       C  0.97763281  0.48181004  0.85492889    -0.05830
C2165       C  0.99937851  0.49980095  0.84088167     0.00110
C2166       C  0.51950758  0.01690718  0.85901933    -0.08360
C2167       C  0.54319131  0.03727902  0.84549627     0.62020
H2168       H  0.53166327  0.02867173  0.90473311     0.12710
H2169       H  0.96225750  0.46910671  0.84082494     0.12730
C2170       C  0.95199269  0.45970913  0.90059844     0.62250
F2171       F  0.55715484  0.05500210  0.86721104    -0.22910
F2172       F  0.52979826  0.05625116  0.82504089    -0.20240
F2173       F  0.56520894  0.02011838  0.83114201    -0.19920
F2174       F  0.93451995  0.47678658  0.92037510    -0.19970
F2175       F  0.96556371  0.43637030  0.91595563    -0.20290
F2176       F  0.93310774  0.44716594  0.87908587    -0.22970
C2177       C  0.51890009  0.39048232  0.72699992    -0.05810
C2178       C  0.00290395  0.40623093  0.74964266     0.00120
C2179       C  0.98798738  0.38994147  0.77255883    -0.08450
C2180       C  0.98869565  0.35821964  0.77130285    -0.05830
C2181       C  0.00445200  0.34241770  0.74851237     0.00110
C2182       C  0.51988768  0.35872300  0.72591726    -0.08360
C2183       C  0.53634365  0.34275676  0.70013865     0.62020
H2184       H  0.53030712  0.40336926  0.70984045     0.12710
H2185       H  0.97721297  0.34538836  0.78845737     0.12730
C2186       C  0.97269521  0.40594424  0.79903413     0.62250
F2187       F  0.54682609  0.36280368  0.67890018    -0.22910
F2188       F  0.51703659  0.32298830  0.68572456    -0.20240
F2189       F  0.56082511  0.32699312  0.71116473    -0.19920
F2190       F  0.94820039  0.42242702  0.78912397    -0.19970
F2191       F  0.99303135  0.42503833  0.81293853    -0.20290
F2192       F  0.96250139  0.38588764  0.82040494    -0.22970
C2193       C  0.51149052  0.10775052  0.77149084    -0.05810
C2194       C  0.99815155  0.09247963  0.74716614     0.00120
C2195       C  0.98440446  0.10926080  0.72387355    -0.08450
C2196       C  0.98401038  0.14100301  0.72623683    -0.05830
C2197       C  0.99802246  0.15621535  0.75032852     0.00110
C2198       C  0.51141708  0.13936214  0.77370115    -0.08360
C2199       C  0.52519730  0.15468091  0.80110232     0.62020
H2200       H  0.52219660  0.09467499  0.78881398     0.12710
H2201       H  0.97327837  0.15422221  0.70891053     0.12730
C2202       C  0.97174621  0.09378415  0.69594707     0.62250
F2203       F  0.53269124  0.13425831  0.82326937    -0.22910
F2204       F  0.00493359  0.17525262  0.81351079    -0.20240
F2205       F  0.55113141  0.16934713  0.79251663    -0.19920
F2206       F  0.94723713  0.07642407  0.70369331    -0.19970
F2207       F  0.49369149  0.07552442  0.68284306    -0.20290
F2208       F  0.96244900  0.11434163  0.67459635    -0.22970
O2209       O  0.52507970  0.00028658  0.29329096    -0.72970
O2210       O  0.52691070  0.49926846  0.20289078    -0.73950
O2211       O  0.52457981  0.54534870  0.24814271    -0.62570
O2212       O  0.52707469  0.95424433  0.24816773    -0.70980
O2213       O  0.97709611  0.95360187  0.24799829    -0.70530
O2214       O  0.97462891  0.54420526  0.24655307    -0.61790
O2215       O  0.97717452  0.49801628  0.20181779    -0.74290
O2216       O  0.97515674  0.99977356  0.29272372    -0.73070
Cu2217     Cu  0.52763648  0.49982710  0.24813155     1.04560
Cu2218     Cu  0.97428104  0.99885679  0.24722343     1.04330
C2219       C  0.49995068  0.00021308  0.30738511     0.93230
C2220       C  0.50246495  0.49875554  0.18784151     0.92370
C2221       C  0.49916196  0.55908121  0.24700419     0.84510
C2222       C  0.50233461  0.93961939  0.24867736     0.90780
O2223       O  0.52501660  0.74652932  0.20377296    -0.72970
O2224       O  0.52758462  0.74985440  0.29405699    -0.73950
O2225       O  0.52442595  0.70291270  0.25000441    -0.62570
O2226       O  0.52792177  0.79357131  0.24758657    -0.70980
O2227       O  0.97807134  0.79576440  0.25083065    -0.70530
O2228       O  0.97444501  0.70486787  0.24988181    -0.61790
O2229       O  0.97789052  0.75050133  0.29593754    -0.74290
O2230       O  0.97510516  0.75029397  0.20503340    -0.73070
Cu2231     Cu  0.52792957  0.74813846  0.24881329     1.04560
Cu2232     Cu  0.97460344  0.75044000  0.25049840     1.04330
C2233       C  0.99977269  0.74797903  0.19015037     0.93230
C2234       C  0.00331235  0.75038039  0.30955662     0.92370
C2235       C  0.99897270  0.68959134  0.25013614     0.84510
C2236       C  0.00350591  0.80898791  0.24879802     0.90780
O2237       O  0.77683075  0.49766887  0.29814839    -0.72970
O2238       O  0.78281723  0.50073760  0.20697457    -0.73950
O2239       O  0.77991893  0.54408025  0.25434276    -0.62570
O2240       O  0.77985457  0.95386976  0.25085200    -0.70980
O2241       O  0.73019238  0.95463018  0.24799948    -0.70530
O2242       O  0.73030875  0.54441267  0.25148798    -0.61790
O2243       O  0.73302494  0.50117910  0.20494635    -0.74290
O2244       O  0.72726266  0.49830773  0.29495462    -0.73070
Cu2245     Cu  0.78163006  0.49900679  0.25270613     1.04560
Cu2246     Cu  0.72855608  0.49957746  0.24976576     1.04330
C2247       C  0.75096365  0.49752487  0.31110915     0.93230
C2248       C  0.75855468  0.50217162  0.19155118     0.92370
C2249       C  0.75515815  0.55872892  0.25291539     0.84510
C2250       C  0.75494442  0.93978981  0.24902771     0.90780
O2251       O  0.77241038  0.74958110  0.20489428    -0.72970
O2252       O  0.77225669  0.74898978  0.29565868    -0.73950
O2253       O  0.77257146  0.70428331  0.24958536    -0.62570
O2254       O  0.77190984  0.79423161  0.25096804    -0.70980
O2255       O  0.72216515  0.79448619  0.25027471    -0.70530
O2256       O  0.72286847  0.70431273  0.24990658    -0.61790
O2257       O  0.72249015  0.74937310  0.29535453    -0.74290
O2258       O  0.72237478  0.74890365  0.20494170    -0.73070
Cu2259     Cu  0.77402294  0.74926936  0.25026553     1.04560
Cu2260     Cu  0.72075720  0.74928213  0.25014224     1.04330
C2261       C  0.74740779  0.74914902  0.19067599     0.93230
C2262       C  0.74719279  0.74915803  0.31000886     0.92370
C2263       C  0.74775983  0.68981388  0.24981212     0.84510
C2264       C  0.74698157  0.80883722  0.25054246     0.90780
O2265       O  0.99641753  0.97162102  0.45202080    -0.72970
O2266       O  0.99929402  0.97254784  0.04261044    -0.73950
O2267       O  0.95283581  0.97211657  0.99915405    -0.62570
O2268       O  0.54334442  0.97217610  0.49570117    -0.70980
O2269       O  0.54294591  0.52223266  0.49553895    -0.70530
O2270       O  0.95231088  0.52182339  0.99941626    -0.61790
O2271       O  0.99931390  0.52258865  0.04286368    -0.74290
O2272       O  0.49605643  0.52158439  0.45234093    -0.73070
Cu2273     Cu  0.99798566  0.97041337  0.99733662     1.04560
Cu2274     Cu  0.99765192  0.52376556  0.49752891     1.04330
C2275       C  0.99570547  0.49649251  0.43788648     0.93230
C2276       C  0.99942716  0.49767721  0.05696712     0.92370
C2277       C  0.93805663  0.49686110  0.99987911     0.84510
C2278       C  0.55734609  0.49721735  0.49511680     0.90780
O2279       O  0.49940920  0.72579448  0.04526561    -0.72970
O2280       O  0.50185279  0.72550748  0.45450028    -0.73950
O2281       O  0.54567127  0.72570940  0.50135256    -0.62570
O2282       O  0.95571122  0.72494347  0.99895765    -0.70980
O2283       O  0.95484956  0.77461546  0.99964835    -0.70530
O2284       O  0.54539186  0.77569158  0.50062480    -0.61790
O2285       O  0.50043054  0.77555059  0.45497702    -0.74290
O2286       O  0.49958004  0.77560159  0.04514498    -0.73070
Cu2287     Cu  0.50071262  0.72401656  0.49996037     1.04560
Cu2288     Cu  0.50006835  0.77680684  0.00007169     1.04330
C2289       C  0.49906326  0.75099065  0.05962363     0.93230
C2290       C  0.50103019  0.75051152  0.44053043     0.92370
C2291       C  0.55974674  0.75065216  0.50170397     0.84510
C2292       C  0.94076625  0.74954658  0.99909551     0.90780
O2293       O  0.74794871  0.97390463  0.45767195    -0.72970
O2294       O  0.74766350  0.98057761  0.04863876    -0.73950
O2295       O  0.70231456  0.97548621  0.00319930    -0.62570
O2296       O  0.79252481  0.97800460  0.50335812    -0.70980
O2297       O  0.79163066  0.52761768  0.50026754    -0.70530
O2298       O  0.70044604  0.52540465  0.00061270    -0.61790
O2299       O  0.74665550  0.53044770  0.04577803    -0.74290
O2300       O  0.74637389  0.52385179  0.45533616    -0.73070
Cu2301     Cu  0.74755267  0.97536145  0.00332505     1.04560
Cu2302     Cu  0.74612478  0.52849934  0.50040457     1.04330
C2303       C  0.74768988  0.99807949  0.44228616     0.93230
C2304       C  0.74764844  0.00656749  0.06149094     0.92370
C2305       C  0.68712911  0.99994179  0.00181904     0.84510
C2306       C  0.80656675  0.00298785  0.50203722     0.90780
O2307       O  0.75147838  0.72655785  0.45510634    -0.72970
O2308       O  0.74925006  0.72815702  0.04572100    -0.73950
O2309       O  0.70464357  0.72641220  0.99972831    -0.62570
O2310       O  0.79530574  0.72859612  0.50105289    -0.70980
O2311       O  0.79384690  0.77824565  0.50053869    -0.70530
O2312       O  0.70357934  0.77637565  0.99943461    -0.61790
O2313       O  0.74801335  0.77794129  0.04545314    -0.74290
O2314       O  0.74971045  0.77655093  0.45480084    -0.73070
Cu2315     Cu  0.75016075  0.72567002  0.00042760     1.04560
Cu2316     Cu  0.74870660  0.77898941  0.50008340     1.04330
C2317       C  0.75137183  0.75129659  0.44072313     0.93230
C2318       C  0.74865758  0.75334292  0.06005583     0.92370
C2319       C  0.68982519  0.75120652  0.99918794     0.84510
C2320       C  0.80909979  0.75381206  0.50065108     0.90780
C2321       C  0.89225165  0.77760143  0.00092100    -0.05810
C2322       C  0.90702396  0.74949856  0.99886619     0.00120
C2323       C  0.88933585  0.72327007  0.49669981    -0.08450
C2324       C  0.85774022  0.72607407  0.49751369    -0.05830
C2325       C  0.84286086  0.75410790  0.49994422     0.00110
C2326       C  0.86065177  0.78053869  0.00122174    -0.08360
C2327       C  0.84703983  0.81211249  0.00276012     0.62020
H2328       H  0.90582124  0.79771172  0.00230387     0.12710
H2329       H  0.84425938  0.70590413  0.49613744     0.12730
C2330       C  0.90303892  0.69181327  0.49340134     0.62250
F2331       F  0.86884172  0.83427901  0.00398322    -0.22910
F2332       F  0.82940817  0.81533514  0.02840129    -0.20240
F2333       F  0.82961616  0.81730797  0.47731207    -0.19920
F2334       F  0.91964813  0.68468991  0.01867640    -0.19970
F2335       F  0.92104456  0.69022506  0.46784879    -0.20290
F2336       F  0.88129895  0.66973428  0.49042844    -0.22970
C2337       C  0.64171732  0.73578809  0.02255688    -0.05810
C2338       C  0.65647489  0.75085483  0.99917222     0.00120
C2339       C  0.63929194  0.76543059  0.47656660    -0.08450
C2340       C  0.60774887  0.76577293  0.47905462    -0.05830
C2341       C  0.59296243  0.75056859  0.50218852     0.00110
C2342       C  0.61002402  0.73490355  0.02433287    -0.08360
C2343       C  0.59490050  0.71861738  0.05018642     0.62020
H2344       H  0.65529487  0.72475406  0.03948645     0.12710
H2345       H  0.59420371  0.77674684  0.46205100     0.12730
C2346       C  0.65392028  0.77728438  0.44823615     0.62250
F2347       F  0.61564820  0.70832328  0.07100386    -0.22910
F2348       F  0.57926162  0.69401711  0.03916402    -0.20240
F2349       F  0.57511270  0.73797392  0.06506499    -0.19920
F2350       F  0.66890182  0.75360173  0.43416475    -0.19970
F2351       F  0.67393825  0.80005103  0.45513207    -0.20290
F2352       F  0.63298208  0.78863797  0.42816515    -0.22970
C2353       C  0.85461991  0.97480124  0.49575371    -0.05810
C2354       C  0.84028678  0.00253328  0.50218639     0.00120
C2355       C  0.85835097  0.52803622  0.00946984    -0.08450
C2356       C  0.88995661  0.52481444  0.00831619    -0.05830
C2357       C  0.90430727  0.49715956  0.00134269     0.00110
C2358       C  0.88615400  0.97121952  0.49589615    -0.08360
C2359       C  0.89923088  0.93976234  0.49056269     0.62020
H2360       H  0.84071492  0.95549043  0.49062828     0.12710
H2361       H  0.90382964  0.54422016  0.01318130     0.12650
C2362       C  0.84487874  0.55825096  0.01919288     0.62250
F2363       F  0.87706625  0.91844274  0.48566545    -0.22910
F2364       F  0.91539277  0.93097975  0.51565009    -0.20240
F2365       F  0.91776260  0.93945730  0.46543285    -0.19920
F2366       F  0.82522785  0.55429494  0.04313747    -0.19970
F2367       F  0.82973509  0.57104959  0.99527106    -0.20290
F2368       F  0.86673542  0.57839354  0.02860169    -0.22970
C2369       C  0.63999253  0.00234651  0.47271116    -0.05810
C2370       C  0.65389197  0.99855171  0.00084725     0.00120
C2371       C  0.63579205  0.49302720  0.02668768    -0.08450
C2372       C  0.60432640  0.49294110  0.02362186    -0.05830
C2373       C  0.59052932  0.49724381  0.49574568     0.00110
C2374       C  0.60837937  0.00147832  0.46966761    -0.08360
C2375       C  0.59392811  0.00495728  0.43896357     0.62020
H2376       H  0.65410776  0.00601485  0.45309524     0.12710
H2377       H  0.59028747  0.48948504  0.04338869     0.12730
C2378       C  0.64771874  0.48801027  0.05821449     0.62250
F2379       F  0.61521685  0.50682826  0.41613354    -0.22910
F2380       F  0.57662043  0.53094459  0.43893204    -0.20240
F2381       F  0.57575717  0.98042890  0.43281026    -0.19920
F2382       F  0.63769872  0.51140150  0.07664449    -0.19970
F2383       F  0.67873565  0.98647029  0.05960887    -0.20290
F2384       F  0.63646483  0.96128428  0.06916584    -0.22970
C2385       C  0.75977101  0.77483100  0.14337279    -0.05810
C2386       C  0.74748881  0.74966537  0.15743607     0.00120
C2387       C  0.73594008  0.72569404  0.13978029    -0.08450
C2388       C  0.73658136  0.72805774  0.10815314    -0.05830
C2389       C  0.74840665  0.75351220  0.09373098     0.00110
C2390       C  0.76042483  0.77738790  0.11172804    -0.08360
C2391       C  0.77464919  0.80512289  0.09803531     0.62020
H2392       H  0.76858533  0.79273550  0.15759328     0.12710
H2393       H  0.72756233  0.70992221  0.09440091     0.12730
C2394       C  0.72380142  0.69743057  0.15434148     0.62250
F2395       F  0.78774346  0.82354429  0.11971883    -0.22910
F2396       F  0.75292623  0.82196042  0.08343659    -0.20240
F2397       F  0.79696743  0.79643401  0.07780658    -0.19920
F2398       F  0.69824364  0.70441672  0.17102007    -0.19970
F2399       F  0.74541167  0.68529613  0.17317015    -0.20290
F2400       F  0.71623775  0.67565239  0.13307439    -0.22970
C2401       C  0.77344927  0.73891437  0.35842505    -0.05810
C2402       C  0.74719481  0.74914817  0.34372679     0.00120
C2403       C  0.72252978  0.75993321  0.36161899    -0.08450
C2404       C  0.72621141  0.76225166  0.39299152    -0.05830
C2405       C  0.75157369  0.75075312  0.40745895     0.00110
C2406       C  0.77578953  0.73889559  0.39015402    -0.08360
C2407       C  0.80433151  0.72751682  0.40515781     0.62020
H2408       H  0.79209402  0.73044854  0.34487005     0.12710
H2409       H  0.70896052  0.77280792  0.40671399     0.12730
C2410       C  0.69226938  0.76886370  0.34837012     0.62250
F2411       F  0.82614823  0.71914520  0.38418363    -0.22910
F2412       F  0.79788960  0.70268289  0.42248546    -0.20240
F2413       F  0.81613783  0.74996196  0.42348361    -0.19920
F2414       F  0.67944035  0.74423939  0.33403228    -0.19970
F2415       F  0.69617049  0.79183523  0.32814921    -0.20290
F2416       F  0.67207061  0.77892249  0.37024496    -0.22970
C2417       C  0.77692700  0.99562837  0.10703122    -0.05810
C2418       C  0.75088420  0.50868420  0.09466634     0.00120
C2419       C  0.72966251  0.52296896  0.11426011    -0.08450
C2420       C  0.73382768  0.52064041  0.14552387    -0.05830
C2421       C  0.75886638  0.50594028  0.15810397     0.00110
C2422       C  0.78197853  0.99506363  0.13844720    -0.08360
C2423       C  0.81172568  0.98299538  0.15012004     0.62020
H2424       H  0.79357291  0.98606577  0.09164260     0.12710
H2425       H  0.71694694  0.53058523  0.16045781     0.12730
C2426       C  0.70191070  0.54044725  0.10453115     0.62250
F2427       F  0.83083250  0.97382697  0.12691422    -0.22910
F2428       F  0.80660674  0.95853640  0.16825062    -0.20240
F2429       F  0.82625670  0.50529260  0.16649250    -0.19920
F2430       F  0.67671885  0.02770533  0.11751103    -0.19970
F2431       F  0.69776087  0.54112039  0.07372953    -0.20290
F2432       F  0.70417015  0.56985839  0.11494045    -0.22970
C2433       C  0.72213969  0.99276629  0.39317567    -0.05810
C2434       C  0.74903537  0.99651174  0.40904543     0.00120
C2435       C  0.77635876  0.50020841  0.39317400    -0.08450
C2436       C  0.77584879  0.50008397  0.36140577    -0.05830
C2437       C  0.74885917  0.49673865  0.34495559     0.00110
C2438       C  0.72128870  0.99292180  0.36133790    -0.08360
C2439       C  0.69088956  0.98913739  0.34597433     0.62020
H2440       H  0.70159676  0.99024137  0.40617507     0.12710
H2441       H  0.79678604  0.50303211  0.34922357     0.12730
C2442       C  0.80588906  0.50429303  0.40994990     0.62250
F2443       F  0.66781733  0.98461919  0.36654523    -0.22910
F2444       F  0.69174281  0.96437194  0.32668595    -0.20240
F2445       F  0.68381624  0.51481143  0.33002717    -0.19920
F2446       F  0.81103106  0.97976221  0.42821346    -0.19970
F2447       F  0.80448413  0.53015164  0.42767768    -0.20290
F2448       F  0.83014314  0.50682419  0.39040512    -0.22970
C2449       C  0.72600517  0.89279775  0.25484380    -0.05810
C2450       C  0.75400077  0.90618604  0.24882532     0.00120
C2451       C  0.77936117  0.88727182  0.24275042    -0.08450
C2452       C  0.77557716  0.85589603  0.24353469    -0.05830
C2453       C  0.74763898  0.84247136  0.24983980     0.00110
C2454       C  0.72211122  0.86141568  0.25522872    -0.08360
C2455       C  0.69080551  0.84925423  0.26167437     0.62020
H2456       H  0.70680412  0.90730802  0.25946245     0.12710
H2457       H  0.79484993  0.84144690  0.23903822     0.12730
C2458       C  0.81030272  0.89952715  0.23490101     0.62250
F2459       F  0.66998227  0.87197348  0.26762287    -0.22910
F2460       F  0.69174075  0.83114160  0.28669267    -0.20240
F2461       F  0.68056561  0.83295865  0.23698544    -0.19920
F2462       F  0.82209424  0.91489146  0.25946977    -0.19970
F2463       F  0.80795542  0.91856923  0.21064364    -0.20290
F2464       F  0.83057311  0.87690985  0.22689613    -0.22970
C2465       C  0.77700790  0.64207827  0.24969824    -0.05810
C2466       C  0.74847486  0.65616951  0.25027276     0.00120
C2467       C  0.72228914  0.63786109  0.25167155    -0.08450
C2468       C  0.72602647  0.60645761  0.25291792    -0.05830
C2469       C  0.75454867  0.59236793  0.25245159     0.00110
C2470       C  0.78072089  0.61063405  0.25062514    -0.08360
C2471       C  0.81258616  0.59765233  0.24941395     0.62020
H2472       H  0.79683883  0.65604429  0.24848809     0.12710
H2473       H  0.70619707  0.59250285  0.25424412     0.12730
C2474       C  0.69034271  0.65070082  0.25184896     0.62250
F2475       F  0.83424898  0.61983193  0.24709183    -0.22910
F2476       F  0.81574079  0.57879112  0.22446130    -0.20240
F2477       F  0.81846336  0.58190143  0.27551299    -0.19920
F2478       F  0.68544877  0.66692179  0.22584226    -0.19970
F2479       F  0.68609293  0.66905271  0.27701650    -0.20290
F2480       F  0.66868504  0.62840352  0.25281882    -0.22970
C2481       C  0.98583912  0.77251142  0.14261108    -0.05810
C2482       C  0.49921113  0.74786957  0.15687253     0.00120
C2483       C  0.51203944  0.72419176  0.13932523    -0.08450
C2484       C  0.51126957  0.72621581  0.10772603    -0.05830
C2485       C  0.49865330  0.75127187  0.09319719     0.00110
C2486       C  0.98579970  0.77509667  0.11097344    -0.08360
C2487       C  0.97200626  0.80313611  0.09708992     0.62020
H2488       H  0.97606366  0.79020380  0.15666524     0.12710
H2489       H  0.52110196  0.70826284  0.09405490     0.12730
C2490       C  0.52557211  0.69644763  0.15385643     0.62250
F2491       F  0.95835987  0.82166427  0.11858778    -0.22910
F2492       F  0.95028160  0.79504987  0.07621747    -0.20240
F2493       F  0.49426705  0.81969819  0.08315938    -0.19920
F2494       F  0.00466822  0.68393818  0.17306852    -0.19970
F2495       F  0.55101429  0.70419804  0.17002992    -0.20290
F2496       F  0.53379258  0.67468733  0.13264546    -0.22970
C2497       C  0.52851905  0.74533934  0.39245854    -0.05810
C2498       C  0.50115521  0.75060226  0.40732604     0.00120
C2499       C  0.97487547  0.75663560  0.39056701    -0.08450
C2500       C  0.97673175  0.75623743  0.35885983    -0.05830
C2501       C  0.50416350  0.75084079  0.34340812     0.00110
C2502       C  0.53087194  0.74593282  0.36074611    -0.08360
C2503       C  0.56192450  0.74160303  0.34660020     0.62020
H2504       H  0.54826775  0.74128136  0.40618186     0.12710
H2505       H  0.95652840  0.76048633  0.34593048     0.12730
C2506       C  0.94501705  0.76325725  0.40628065     0.62250
F2507       F  0.58408741  0.73707596  0.36805222    -0.22910
F2508       F  0.56964617  0.76696713  0.33057661    -0.20240
F2509       F  0.56199228  0.71667602  0.32765280    -0.19920
F2510       F  0.94748320  0.78903369  0.42395595    -0.19970
F2511       F  0.93735080  0.73935770  0.42441988    -0.20290
F2512       F  0.92187801  0.76771965  0.38588901    -0.22970
C2513       C  0.97665991  0.98945707  0.13900092    -0.05810
C2514       C  0.00299554  0.49878070  0.15407685     0.00120
C2515       C  0.52820855  0.50832419  0.13655159    -0.08450
C2516       C  0.52591127  0.50776058  0.10481733    -0.05830
C2517       C  0.99979729  0.49794673  0.09021622     0.00110
C2518       C  0.97460311  0.98894091  0.10733664    -0.08360
C2519       C  0.94542484  0.97960431  0.09210790     0.62020
H2520       H  0.95749704  0.98232183  0.15223408     0.12710
H2521       H  0.54473451  0.51465736  0.09093108     0.12730
C2522       C  0.55739911  0.51938355  0.15068089     0.62250
F2523       F  0.92297052  0.97343909  0.11287862    -0.22910
F2524       F  0.95026569  0.95398103  0.07463515    -0.20240
F2525       F  0.93526675  0.50260232  0.07389560    -0.19920
F2526       F  0.57143858  0.99604002  0.16564495    -0.19970
F2527       F  0.55140694  0.54290288  0.17066282    -0.20290
F2528       F  0.57746329  0.52980567  0.12924581    -0.22970
C2529       C  0.51690922  0.51540157  0.39055355    -0.05810
C2530       C  0.99595398  0.49665149  0.40451493     0.00120
C2531       C  0.97588168  0.97946118  0.38654857    -0.08450
C2532       C  0.97765038  0.98179130  0.35492910    -0.05830
C2533       C  0.99939556  0.99978341  0.34088214     0.00110
C2534       C  0.51953411  0.51687845  0.35901980    -0.08360
C2535       C  0.54320857  0.53726185  0.34549722     0.62020
H2536       H  0.53171618  0.52861065  0.40473481     0.12710
H2537       H  0.96226583  0.96909891  0.34082552     0.12730
C2538       C  0.95201924  0.95967983  0.40059917     0.62250
F2539       F  0.55717750  0.55497625  0.36721552    -0.22910
F2540       F  0.52980371  0.55624298  0.32505699    -0.20240
F2541       F  0.56522376  0.52011273  0.33112538    -0.19920
F2542       F  0.93456129  0.97675570  0.42039067    -0.19970
F2543       F  0.96558764  0.93632925  0.41594089    -0.20290
F2544       F  0.93312037  0.94715388  0.37908908    -0.22970
C2545       C  0.51889837  0.89048135  0.22699387    -0.05810
C2546       C  0.00290268  0.90622895  0.24963777     0.00120
C2547       C  0.98798725  0.88993817  0.27255404    -0.08450
C2548       C  0.98869577  0.85821593  0.27129617    -0.05830
C2549       C  0.00445087  0.84241556  0.24850314     0.00110
C2550       C  0.51988556  0.85872209  0.22590927    -0.08360
C2551       C  0.53634051  0.84275559  0.20013026     0.62020
H2552       H  0.53030509  0.90336891  0.20983470     0.12710
H2553       H  0.97721406  0.84538336  0.28845038     0.12730
C2554       C  0.97269627  0.90594024  0.29903084     0.62250
F2555       F  0.54682316  0.86280283  0.17889245    -0.22910
F2556       F  0.51703263  0.82298660  0.18571607    -0.20240
F2557       F  0.56082211  0.82699206  0.21115654    -0.19920
F2558       F  0.94820059  0.92242315  0.28912277    -0.19970
F2559       F  0.99303289  0.92503438  0.31293451    -0.20290
F2560       F  0.96250397  0.88588315  0.32040186    -0.22970
C2561       C  0.51149425  0.60774933  0.27149441    -0.05810
C2562       C  0.99815124  0.59247679  0.24717249     0.00120
C2563       C  0.98439546  0.60925545  0.22388363    -0.08450
C2564       C  0.98398963  0.64099686  0.22625171    -0.05830
C2565       C  0.99801789  0.65621237  0.25033244     0.00110
C2566       C  0.51142091  0.63936156  0.27370145    -0.08360
C2567       C  0.52519977  0.65468444  0.30110106     0.62020
H2568       H  0.52220269  0.59467509  0.28881714     0.12710
H2569       H  0.97323271  0.65421164  0.20893832     0.12730
C2570       C  0.97174239  0.59377795  0.19595450     0.62250
F2571       F  0.53269350  0.63426451  0.32327030    -0.22910
F2572       F  0.00493341  0.67525577  0.31350628    -0.20240
F2573       F  0.55113332  0.66935288  0.29251598    -0.19920
F2574       F  0.94723510  0.57641354  0.20369629    -0.19970
F2575       F  0.49369192  0.57552215  0.18285184    -0.20290
F2576       F  0.96244558  0.61433505  0.17460314    -0.22970
O2577       O  0.52507272  0.00029308  0.79329499    -0.72970
O2578       O  0.52692036  0.49926388  0.70289487    -0.73950
O2579       O  0.52457982  0.54535082  0.74814152    -0.62570
O2580       O  0.52707624  0.95424606  0.74817607    -0.70980
O2581       O  0.97709767  0.95360320  0.74799645    -0.70530
O2582       O  0.97462942  0.54420689  0.74654231    -0.61790
O2583       O  0.97718446  0.49801160  0.70181148    -0.74290
O2584       O  0.97514994  0.99977929  0.79271784    -0.73070
Cu2585     Cu  0.52763753  0.49982868  0.74813569     1.04560
Cu2586     Cu  0.97428237  0.99885785  0.74721694     1.04330
C2587       C  0.49994093  0.00022149  0.80738426     0.93230
C2588       C  0.50247794  0.49874703  0.68784036     0.92370
C2589       C  0.49916211  0.55908335  0.74699737     0.84510
C2590       C  0.50233612  0.93962106  0.74868111     0.90780
O2591       O  0.52499534  0.74654830  0.70377162    -0.72970
O2592       O  0.52759463  0.74983377  0.79405809    -0.73950
O2593       O  0.52442707  0.70291508  0.74999437    -0.62570
O2594       O  0.52792045  0.79357237  0.74759528    -0.70980
O2595       O  0.97807127  0.79576802  0.75085852    -0.70530
O2596       O  0.97444574  0.70486983  0.74989081    -0.61790
O2597       O  0.97790030  0.75048579  0.79594975    -0.74290
O2598       O  0.97508433  0.75031882  0.70505874    -0.73070
Cu2599     Cu  0.52792702  0.74813927  0.74881266     1.04560
Cu2600     Cu  0.97460100  0.75044356  0.75051800     1.04330
C2601       C  0.99974494  0.74802412  0.69016282     0.93230
C2602       C  0.00332460  0.75033907  0.80956201     0.92370
C2603       C  0.99897455  0.68959379  0.75013540     0.84510
C2604       C  0.00350578  0.80899017  0.74881291     0.90780
O2605       O  0.77682158  0.49770066  0.79816057    -0.72970
O2606       O  0.78284361  0.50070047  0.70698391    -0.73950
O2607       O  0.77992794  0.54407769  0.75432464    -0.62570
O2608       O  0.77986032  0.95386470  0.75089331    -0.70980
O2609       O  0.73019921  0.95462555  0.74802249    -0.70530
O2610       O  0.73031865  0.54440809  0.75145464    -0.61790
O2611       O  0.73305202  0.50114336  0.70494066    -0.74290
O2612       O  0.72725467  0.49833670  0.79494951    -0.73070
Cu2613     Cu  0.78163819  0.49900319  0.75271800     1.04560
Cu2614     Cu  0.72856526  0.49957318  0.74975972     1.04330
C2615       C  0.75095005  0.49757185  0.81111318     0.93230
C2616       C  0.75858587  0.50212352  0.69155184     0.92370
C2617       C  0.75516716  0.55872521  0.75288613     0.84510
C2618       C  0.75495018  0.93978492  0.74906466     0.90780
O2619       O  0.77240622  0.74958083  0.70489501    -0.72970
O2620       O  0.77225426  0.74898162  0.79566000    -0.73950
O2621       O  0.77257124  0.70428024  0.74958147    -0.62570
O2622       O  0.77190509  0.79422625  0.75097501    -0.70980
O2623       O  0.72216041  0.79448180  0.75028341    -0.70530
O2624       O  0.72286825  0.70430742  0.74990310    -0.61790
O2625       O  0.72248767  0.74936350  0.79535685    -0.74290
O2626       O  0.72237068  0.74890300  0.70494384    -0.73070
Cu2627     Cu  0.77401996  0.74926529  0.75026672     1.04560
Cu2628     Cu  0.72075421  0.74927703  0.75014461     1.04330
C2629       C  0.74740320  0.74914833  0.69067728     0.93230
C2630       C  0.74719060  0.74914918  0.81001067     0.92370
C2631       C  0.74776042  0.68980975  0.74980571     0.84510
C2632       C  0.74697714  0.80883240  0.75055386     0.90780
O2633       O  0.99635893  0.97168718  0.95202738    -0.72970
O2634       O  0.99935379  0.97247896  0.54260990    -0.73950
O2635       O  0.95290021  0.97202322  0.49915026    -0.62570
O2636       O  0.54328976  0.97223592  0.99570648    -0.70980
O2637       O  0.54289851  0.52229226  0.99554060    -0.70530
O2638       O  0.95235211  0.52172998  0.49941403    -0.61790
O2639       O  0.99935669  0.52251999  0.54285912    -0.74290
O2640       O  0.49601213  0.52165012  0.95233891    -0.73070
Cu2641     Cu  0.99804598  0.97034154  0.49733256     1.04560
Cu2642     Cu  0.99760851  0.52383714  0.99753039     1.04330
C2643       C  0.99565473  0.49655540  0.93788831     0.93230
C2644       C  0.99947737  0.49761040  0.55696453     0.92370
C2645       C  0.93810977  0.49675992  0.49987584     0.84510
C2646       C  0.55729537  0.49727584  0.99512085     0.90780
O2647       O  0.49940280  0.72630716  0.54524643    -0.72970
O2648       O  0.50180935  0.72491359  0.95448085    -0.73950
O2649       O  0.54568769  0.72513258  0.00133194    -0.62570
O2650       O  0.95575985  0.72546968  0.49892809    -0.70980
O2651       O  0.95481034  0.77513873  0.49968754    -0.70530
O2652       O  0.54537635  0.77511561  0.00056421    -0.61790
O2653       O  0.50043983  0.77495805  0.95496029    -0.74290
O2654       O  0.49955545  0.77611728  0.54522127    -0.73070
Cu2655     Cu  0.50069455  0.72345068  0.99996366     1.04560
Cu2656     Cu  0.50005295  0.77737195  0.50012113     1.04330
C2657       C  0.49904859  0.75147297  0.55965318     0.93230
C2658       C  0.50100779  0.74992416  0.94051402     0.92370
C2659       C  0.55974684  0.75009118  0.00165275     0.84510
C2660       C  0.94077176  0.75004062  0.49909542     0.90780
O2661       O  0.74789851  0.97407546  0.95767819    -0.72970
O2662       O  0.74771417  0.98041849  0.54863709    -0.73950
O2663       O  0.70236109  0.97533024  0.50319446    -0.62570
O2664       O  0.79247026  0.97817754  0.00336166    -0.70980
O2665       O  0.79158041  0.52779133  0.00027968    -0.70530
O2666       O  0.70050435  0.52524883  0.50060397    -0.61790
O2667       O  0.74671241  0.53028785  0.54576439    -0.74290
O2668       O  0.74632146  0.52402261  0.95534328    -0.73070
Cu2669     Cu  0.74760292  0.97519523  0.50332117     1.04560
Cu2670     Cu  0.74606960  0.52866585  0.00041523     1.04330
C2671       C  0.74763949  0.99825015  0.94229278     0.93230
C2672       C  0.74770101  0.00641175  0.56148308     0.92370
C2673       C  0.68718141  0.99978997  0.50181215     0.84510
C2674       C  0.80651467  0.00315911  0.00204317     0.90780
O2675       O  0.75146479  0.72655253  0.95510655    -0.72970
O2676       O  0.74925895  0.72815865  0.54571879    -0.73950
O2677       O  0.70463306  0.72642662  0.49972106    -0.62570
O2678       O  0.79526894  0.72855407  0.00105375    -0.70980
O2679       O  0.79389152  0.77820675  0.00053340    -0.70530
O2680       O  0.70359028  0.77639049  0.49942589    -0.61790
O2681       O  0.74799088  0.77794231  0.54545427    -0.74290
O2682       O  0.74972123  0.77654645  0.95480327    -0.73070
Cu2683     Cu  0.75017343  0.72568024  0.50042541     1.04560
Cu2684     Cu  0.74872332  0.77898015  0.00008416     1.04330
C2685       C  0.75137089  0.75129261  0.94072452     0.93230
C2686       C  0.74864977  0.75334269  0.56005550     0.92370
C2687       C  0.68982624  0.75123212  0.49917219     0.84510
C2688       C  0.80910451  0.75374273  0.00064733     0.90780
C2689       C  0.89216821  0.77794239  0.50090266    -0.05810
C2690       C  0.90703084  0.74989092  0.49885814     0.00120
C2691       C  0.88924187  0.72294302  0.99668889    -0.08450
C2692       C  0.85765636  0.72585656  0.99749815    -0.05830
C2693       C  0.84286690  0.75394092  0.99993804     0.00110
C2694       C  0.86055894  0.78076927  0.50121565    -0.08360
C2695       C  0.84684386  0.81230037  0.50275629     0.62020
H2696       H  0.90567427  0.79809689  0.50226963     0.12710
H2697       H  0.84411273  0.70573013  0.99610922     0.12730
C2698       C  0.90284093  0.69144588  0.99336893     0.62250
F2699       F  0.86857084  0.83453915  0.50397989    -0.22910
F2700       F  0.82920655  0.81546594  0.52839995    -0.20240
F2701       F  0.82983070  0.81717405  0.97731499    -0.19920
F2702       F  0.91988408  0.68513568  0.51870576    -0.19970
F2703       F  0.92085864  0.68982405  0.96782696    -0.20290
F2704       F  0.88102677  0.66944340  0.99036110    -0.22970
C2705       C  0.64166729  0.73590832  0.52250689    -0.05810
C2706       C  0.65647683  0.75094197  0.49913805     0.00120
C2707       C  0.63923886  0.76522201  0.97656190    -0.08450
C2708       C  0.60769099  0.76533462  0.97897834    -0.05830
C2709       C  0.59296140  0.75008695  0.00212050     0.00110
C2710       C  0.60997079  0.73518748  0.52431201    -0.08360
C2711       C  0.59479361  0.71882021  0.55008358     0.62020
H2712       H  0.65520574  0.72476146  0.53939293     0.12710
H2713       H  0.59410396  0.77619473  0.96193432     0.12730
C2714       C  0.65383658  0.77720996  0.94827566     0.62250
F2715       F  0.61550677  0.70836662  0.57085453    -0.22910
F2716       F  0.57909597  0.69431112  0.53893909    -0.20240
F2717       F  0.57505231  0.73815640  0.56505069    -0.19920
F2718       F  0.66891764  0.75362329  0.93415292    -0.19970
F2719       F  0.67375940  0.80003829  0.95524850    -0.20290
F2720       F  0.63286813  0.78854183  0.92822310    -0.22970
C2721       C  0.85455424  0.97495378  0.99575296    -0.05810
C2722       C  0.84023523  0.00269326  0.00218652     0.00120
C2723       C  0.85838878  0.52788591  0.50947181    -0.08450
C2724       C  0.88999534  0.52468276  0.50831676    -0.05830
C2725       C  0.90436086  0.49703746  0.50134010     0.00110
C2726       C  0.88608571  0.97135312  0.99589845    -0.08360
C2727       C  0.89914382  0.93988773  0.99057021     0.62020
H2728       H  0.84063977  0.95565035  0.99062619     0.12710
H2729       H  0.90385750  0.54409619  0.51318241     0.12650
C2730       C  0.84490106  0.55809277  0.51919858     0.62250
F2731       F  0.87696656  0.91858110  0.98567374    -0.22910
F2732       F  0.91529774  0.93109909  0.01566046    -0.20240
F2733       F  0.91767790  0.93956785  0.96544226    -0.19920
F2734       F  0.82524710  0.55412298  0.54313820    -0.19970
F2735       F  0.82975740  0.57089015  0.49527603    -0.20290
F2736       F  0.86674653  0.57824310  0.52861676    -0.22970
C2737       C  0.63993808  0.00246984  0.97271898    -0.05810
C2738       C  0.65394377  0.99841417  0.50083890     0.00120
C2739       C  0.63583906  0.49291228  0.52668095    -0.08450
C2740       C  0.60437323  0.49286471  0.52361780    -0.05830
C2741       C  0.59047921  0.49730636  0.99574884     0.00110
C2742       C  0.60832634  0.00156702  0.96967332    -0.08360
C2743       C  0.59387315  0.00503839  0.93896943     0.62020
H2744       H  0.65405028  0.00615361  0.95310408     0.12710
H2745       H  0.59033144  0.48942232  0.54338530     0.12730
C2746       C  0.64776078  0.48787849  0.55820647     0.62250
F2747       F  0.61516063  0.50693621  0.91614103    -0.22910
F2748       F  0.57653971  0.53100856  0.93894310    -0.20240
F2749       F  0.57572731  0.98049279  0.93280977    -0.19920
F2750       F  0.63776746  0.51127920  0.57663842    -0.19970
F2751       F  0.67877628  0.98630172  0.55959971    -0.20290
F2752       F  0.63647531  0.96116502  0.56915587    -0.22970
C2753       C  0.75976308  0.77482910  0.64337264    -0.05810
C2754       C  0.74748301  0.74966335  0.65743698     0.00120
C2755       C  0.73593593  0.72569040  0.63978184    -0.08450
C2756       C  0.73657676  0.72805303  0.60815391    -0.05830
C2757       C  0.74839867  0.75350900  0.59373113     0.00110
C2758       C  0.76041604  0.77738484  0.61172795    -0.08360
C2759       C  0.77464340  0.80511667  0.59803361     0.62020
H2760       H  0.76857729  0.79273437  0.65759221     0.12710
H2761       H  0.72755989  0.70991631  0.59440174     0.12730
C2762       C  0.72379869  0.69742731  0.65434512     0.62250
F2763       F  0.78773798  0.82353927  0.61971568    -0.22910
F2764       F  0.75292355  0.82195469  0.58343096    -0.20240
F2765       F  0.79696202  0.79642138  0.57780840    -0.19920
F2766       F  0.69824102  0.70441368  0.67102386    -0.19970
F2767       F  0.74540962  0.68529483  0.67317437    -0.20290
F2768       F  0.71623536  0.67564759  0.63307959    -0.22970
C2769       C  0.77344834  0.73890911  0.85842695    -0.05810
C2770       C  0.74719333  0.74914130  0.84372859     0.00120
C2771       C  0.72252985  0.75993044  0.86162059    -0.08450
C2772       C  0.72621415  0.76225490  0.89299244    -0.05830
C2773       C  0.75157416  0.75075211  0.90746039     0.00110
C2774       C  0.77578948  0.73889327  0.89015589    -0.08360
C2775       C  0.80433199  0.72751672  0.90516018     0.62020
H2776       H  0.79209267  0.73044201  0.84487215     0.12710
H2777       H  0.70896818  0.77282117  0.90671364     0.12730
C2778       C  0.69226899  0.76886034  0.84837227     0.62250
F2779       F  0.82614773  0.71914192  0.88418619    -0.22910
F2780       F  0.79789045  0.70268567  0.92249196    -0.20240
F2781       F  0.81613933  0.74996446  0.92348216    -0.19920
F2782       F  0.67943882  0.74423538  0.83403647    -0.19970
F2783       F  0.69617007  0.79183023  0.82814956    -0.20290
F2784       F  0.67207106  0.77892085  0.87024736    -0.22970
C2785       C  0.77697129  0.99550111  0.60703849    -0.05810
C2786       C  0.75092807  0.50854181  0.59465864     0.00120
C2787       C  0.72970650  0.52284793  0.61423709    -0.08450
C2788       C  0.73386789  0.52054928  0.64550349    -0.05830
C2789       C  0.75890572  0.50586352  0.65810067     0.00110
C2790       C  0.78202290  0.99497474  0.63845615    -0.08360
C2791       C  0.81177898  0.98294352  0.65014310     0.62020
H2792       H  0.79362050  0.98592717  0.59166043     0.12710
H2793       H  0.71698581  0.53050902  0.66042611     0.12730
C2794       C  0.70196120  0.54032554  0.60448937     0.62250
F2795       F  0.83089567  0.97377004  0.62694735    -0.22910
F2796       F  0.80668032  0.95849814  0.66829664    -0.20240
F2797       F  0.82628864  0.50526913  0.66649602    -0.19920
F2798       F  0.67676570  0.02761554  0.61749420    -0.19970
F2799       F  0.69780389  0.54095643  0.57368745    -0.20290
F2800       F  0.70423855  0.56974949  0.61485622    -0.22970
C2801       C  0.72209762  0.99292373  0.89317834    -0.05810
C2802       C  0.74898982  0.99667711  0.90905217     0.00120
C2803       C  0.77631917  0.50034803  0.89318450    -0.08450
C2804       C  0.77581894  0.50018842  0.86141571    -0.05830
C2805       C  0.74883402  0.49682810  0.84496070     0.00110
C2806       C  0.72125696  0.99304036  0.86133950    -0.08360
C2807       C  0.69086219  0.98924188  0.84597078     0.62020
H2808       H  0.70155038  0.99041616  0.90617469     0.12710
H2809       H  0.79676096  0.50311647  0.84923638     0.12730
C2810       C  0.80584597  0.50443871  0.90996492     0.62250
F2811       F  0.66778195  0.98475644  0.86654059    -0.22910
F2812       F  0.69171681  0.96445053  0.82671615    -0.20240
F2813       F  0.68379977  0.51489509  0.82998593    -0.19920
F2814       F  0.81097565  0.97992273  0.92825157    -0.19970
F2815       F  0.80444341  0.53031291  0.92766983    -0.20290
F2816       F  0.83010634  0.50694552  0.89042428    -0.22970
C2817       C  0.72600696  0.89279409  0.75487596    -0.05810
C2818       C  0.75400507  0.90618125  0.74886609     0.00120
C2819       C  0.77936479  0.88726605  0.74279205    -0.08450
C2820       C  0.77557778  0.85589071  0.74356807    -0.05830
C2821       C  0.74763662  0.84246679  0.74986131     0.00110
C2822       C  0.72210933  0.86141200  0.75524915    -0.08360
C2823       C  0.69079984  0.84925148  0.76167813     0.62020
H2824       H  0.70680637  0.90730527  0.75949379     0.12710
H2825       H  0.79485051  0.84144135  0.73907239     0.12730
C2826       C  0.81030810  0.89951993  0.73494828     0.62250
F2827       F  0.66997604  0.87197113  0.76762285    -0.22910
F2828       F  0.69172221  0.83113255  0.78669222    -0.20240
F2829       F  0.68056957  0.83296261  0.73698067    -0.19920
F2830       F  0.82209686  0.91488257  0.75951935    -0.19970
F2831       F  0.80796456  0.91856300  0.71069198    -0.20290
F2832       F  0.83057863  0.87690241  0.72694440    -0.22970
C2833       C  0.77701178  0.64207614  0.74968158    -0.05810
C2834       C  0.74847768  0.65616545  0.75025871     0.00120
C2835       C  0.72229313  0.63785520  0.75165256    -0.08450
C2836       C  0.72603242  0.60645156  0.75288838    -0.05830
C2837       C  0.75455565  0.59236390  0.75242129     0.00110
C2838       C  0.78072683  0.61063196  0.75060280    -0.08360
C2839       C  0.81259306  0.59765236  0.74939663     0.62020
H2840       H  0.79684197  0.65604366  0.74847614     0.12710
H2841       H  0.70620378  0.59249526  0.75420984     0.12730
C2842       C  0.69034600  0.65069326  0.75183788     0.62250
F2843       F  0.83425475  0.61983348  0.74707817    -0.22910
F2844       F  0.81575287  0.57879122  0.72444459    -0.20240
F2845       F  0.81846703  0.58190188  0.77549667    -0.19920
F2846       F  0.68544716  0.66692057  0.72583617    -0.19970
F2847       F  0.68609911  0.66903866  0.77701063    -0.20290
F2848       F  0.66868967  0.62839456  0.75280561    -0.22970
C2849       C  0.98577733  0.77269191  0.64270972    -0.05810
C2850       C  0.49916839  0.74800993  0.65688780     0.00120
C2851       C  0.51201031  0.72439890  0.63926310    -0.08450
C2852       C  0.51127030  0.72655016  0.60767325    -0.05830
C2853       C  0.49864241  0.75165345  0.59322803     0.00110
C2854       C  0.98574370  0.77539161  0.61108311    -0.08360
C2855       C  0.97189545  0.80344866  0.59729364     0.62020
H2856       H  0.97597625  0.79032388  0.65682242     0.12710
H2857       H  0.52112508  0.70865324  0.59394427     0.12730
C2858       C  0.52551703  0.69658925  0.65369797     0.62250
F2859       F  0.95820193  0.82187296  0.61885144    -0.22910
F2860       F  0.95019540  0.79538483  0.57638754    -0.20240
F2861       F  0.49412387  0.82010436  0.58342663    -0.19920
F2862       F  0.00459943  0.68402405  0.67286118    -0.19970
F2863       F  0.55096252  0.70426062  0.66990370    -0.20290
F2864       F  0.53372274  0.67489814  0.63240970    -0.22970
C2865       C  0.52848952  0.74484348  0.89243408    -0.05810
C2866       C  0.50112558  0.75006709  0.90731389     0.00120
C2867       C  0.97488308  0.75633182  0.89058046    -0.08450
C2868       C  0.97674948  0.75608468  0.85887569    -0.05830
C2869       C  0.50417552  0.75070014  0.84341082     0.00110
C2870       C  0.53087199  0.74568239  0.86073335    -0.08360
C2871       C  0.56194650  0.74153248  0.84658743     0.62020
H2872       H  0.54822370  0.74066902  0.90614308     0.12710
H2873       H  0.95656614  0.76046963  0.84596047     0.12730
C2874       C  0.94506387  0.76308984  0.90631770     0.62250
F2875       F  0.58411718  0.73701121  0.86803257    -0.22910
F2876       F  0.56957350  0.76699601  0.83067453    -0.20240
F2877       F  0.56212379  0.71668424  0.82753691    -0.19920
F2878       F  0.94768094  0.78882332  0.92403301    -0.19970
F2879       F  0.93726541  0.73920560  0.92442103    -0.20290
F2880       F  0.92194371  0.76772094  0.88594355    -0.22970
C2881       C  0.97668411  0.98943354  0.63899592    -0.05810
C2882       C  0.00301676  0.49875996  0.65407556     0.00120
C2883       C  0.52823605  0.50829273  0.63655321    -0.08450
C2884       C  0.52595124  0.50770688  0.60481812    -0.05830
C2885       C  0.99984086  0.49788810  0.59021373     0.00110
C2886       C  0.97463712  0.98890283  0.60733094    -0.08360
C2887       C  0.94545839  0.97957657  0.59209705     0.62020
H2888       H  0.95751493  0.98231022  0.65222663     0.12710
H2889       H  0.54478007  0.51459359  0.59093422     0.12730
C2890       C  0.55741905  0.51936719  0.65068643     0.62250
F2891       F  0.92299652  0.97342408  0.61286361    -0.22910
F2892       F  0.95029226  0.95394930  0.57462840    -0.20240
F2893       F  0.93531480  0.50257675  0.57387946    -0.19920
F2894       F  0.57146076  0.99603516  0.66566601    -0.19970
F2895       F  0.55141381  0.54289420  0.67065553    -0.20290
F2896       F  0.57748643  0.52978547  0.62925241    -0.22970
C2897       C  0.51686617  0.51545079  0.89055292    -0.05810
C2898       C  0.99590953  0.49670377  0.90451589     0.00120
C2899       C  0.97585241  0.97949472  0.88654916    -0.08450
C2900       C  0.97763281  0.98181004  0.85492888    -0.05830
C2901       C  0.99937851  0.99980095  0.84088166     0.00110
C2902       C  0.51950760  0.51690718  0.85901934    -0.08360
C2903       C  0.54319133  0.53727901  0.84549628     0.62020
H2904       H  0.53166329  0.52867173  0.90473311     0.12710
H2905       H  0.96225750  0.96910671  0.84082493     0.12730
C2906       C  0.95199269  0.95970912  0.90059843     0.62250
F2907       F  0.55715487  0.55500208  0.86721104    -0.22910
F2908       F  0.52979829  0.55625115  0.82504089    -0.20240
F2909       F  0.56520896  0.52011836  0.83114202    -0.19920
F2910       F  0.93451995  0.97678656  0.92037509    -0.19970
F2911       F  0.96556371  0.93637029  0.91595562    -0.20290
F2912       F  0.93310775  0.94716593  0.87908586    -0.22970
C2913       C  0.51890008  0.89048232  0.72699991    -0.05810
C2914       C  0.00290395  0.90623093  0.74964265     0.00120
C2915       C  0.98798737  0.88994147  0.77255882    -0.08450
C2916       C  0.98869565  0.85821964  0.77130284    -0.05830
C2917       C  0.00445200  0.84241770  0.74851236     0.00110
C2918       C  0.51988768  0.85872300  0.72591725    -0.08360
C2919       C  0.53634364  0.84275676  0.70013864     0.62020
H2920       H  0.53030711  0.90336926  0.70984044     0.12710
H2921       H  0.97721296  0.84538836  0.78845736     0.12730
C2922       C  0.97269520  0.90594424  0.79903411     0.62250
F2923       F  0.54682609  0.86280368  0.67890017    -0.22910
F2924       F  0.51703659  0.82298830  0.68572455    -0.20240
F2925       F  0.56082511  0.82699313  0.71116473    -0.19920
F2926       F  0.94820038  0.92242702  0.78912395    -0.19970
F2927       F  0.99303134  0.92503833  0.81293852    -0.20290
F2928       F  0.96250138  0.88588764  0.82040492    -0.22970
C2929       C  0.51149051  0.60775052  0.77149086    -0.05810
C2930       C  0.99815155  0.59247962  0.74716615     0.00120
C2931       C  0.98440445  0.60926080  0.72387356    -0.08450
C2932       C  0.98401037  0.64100301  0.72623684    -0.05830
C2933       C  0.99802246  0.65621535  0.75032853     0.00110
C2934       C  0.51141706  0.63936215  0.77370116    -0.08360
C2935       C  0.52519726  0.65468091  0.80110235     0.62020
H2936       H  0.52219657  0.59467499  0.78881400     0.12710
H2937       H  0.97327835  0.65422221  0.70891055     0.12730
C2938       C  0.97174620  0.59378415  0.69594708     0.62250
F2939       F  0.53269119  0.63425831  0.82326940    -0.22910
F2940       F  0.00493362  0.67525263  0.81351079    -0.20240
F2941       F  0.55113138  0.66934713  0.79251667    -0.19920
F2942       F  0.94723713  0.57642406  0.70369332    -0.19970
F2943       F  0.49369153  0.57552441  0.68284307    -0.20290
F2944       F  0.96244899  0.61434163  0.67459637    -0.22970
loop_ 
_geom_bond_atom_site_label_1 
_geom_bond_atom_site_label_2 
_geom_bond_distance 
_geom_bond_site_symmetry_2 
_ccdc_geom_bond_type 
O1           C11   1.276   1_455  A
O1         Cu745   2.002       .  S
O2           C12   1.275       .  A
O2           Cu9   2.004       .  S
O3           C13   1.279   1_455  A
O3           Cu9   2.024   1_545  S
O4           C14   1.279       .  A
O4         Cu745   2.024       .  S
O5         C1486   1.277       .  A
O5          Cu10   2.013       .  S
O6         C1485   1.277       .  A
O6         Cu746   2.014   1_545  S
O7         C1484   1.280       .  A
O7         Cu746   2.014       .  S
O8         C1483   1.279       .  A
O8          Cu10   2.015       .  S
Cu9         O737   2.002   1_565  S
Cu9         O740   2.024       .  S
Cu9       Cu2218   2.368   1_455  S
Cu10        O742   2.014       .  S
Cu10        O743   2.014       .  S
Cu10      Cu2217   2.368       .  S
C11        O1480   1.279       .  A
C11        C1797   1.484       .  S
C12        O1479   1.280   1_455  A
C12        C1778   1.495       .  S
C13        O1478   1.277       .  A
C13        C1826   1.483       .  S
C14        O1477   1.277   1_455  A
C14        C1810   1.483       .  S
O15        C1497   1.275   1_455  A
O15         Cu23   2.000       .  S
O16        C1498   1.275       .  A
O16         Cu23   2.004       .  S
O17        C1499   1.278   1_455  A
O17         Cu23   2.016       .  S
O18        C1500   1.278       .  A
O18         Cu23   2.018       .  S
O19          C28   1.279       .  A
O19         Cu24   2.019       .  S
O20          C27   1.278       .  A
O20         Cu24   2.023       .  S
O21          C26   1.281       .  A
O21         Cu24   2.018       .  S
O22          C25   1.278       .  A
O22         Cu24   2.013       .  S
Cu23      Cu1496   2.368   1_455  S
Cu24      Cu1495   2.368       .  S
C25        O1487   1.275       .  A
C25        C1746   1.474       .  S
C26        O1488   1.275       .  A
C26        C1765   1.500       .  S
C27        O1489   1.278       .  A
C27         C357   1.483       .  S
C28        O1490   1.278       .  A
C28         C341   1.485       .  S
O29          C39   1.281       .  A
O29         Cu37   2.024       .  S
O30          C40   1.278       .  A
O30         Cu37   2.028   1_545  S
O31          C41   1.275       .  A
O31         Cu37   2.002   1_545  S
O32          C42   1.275       .  A
O32        Cu773   2.006       .  S
O33          C42   1.278       .  A
O33        Cu774   1.996       .  S
O34          C41   1.277       .  A
O34         Cu38   1.993   1_545  S
O35          C40   1.278       .  A
O35         Cu38   1.996   1_545  S
O36          C39   1.274       .  A
O36         Cu38   2.003       .  S
Cu37        O768   2.006       .  S
Cu37        Cu38   2.358       .  S
Cu38        O769   1.996       .  S
C39         C229   1.502       .  S
C40         C213   1.493       .  S
C41         C261   1.494       .  S
C42         C242   1.492       .  S
O43          C53   1.277       .  A
O43         Cu51   2.011       .  S
O44          C54   1.279       .  A
O44         Cu51   2.012       .  S
O45          C55   1.278       .  A
O45         Cu51   1.998       .  S
O46          C56   1.278       .  A
O46         Cu51   1.997       .  S
O47          C56   1.276       .  A
O47         Cu52   2.008       .  S
O48          C55   1.274       .  A
O48         Cu52   1.998       .  S
O49          C54   1.276       .  A
O49         Cu52   2.004       .  S
O50          C53   1.276       .  A
O50         Cu52   2.002       .  S
Cu51        Cu52   2.363       .  S
C53         C178   1.472       .  S
C54         C194   1.493       .  S
C55         C258   1.494       .  S
C56         C245   1.494       .  S
O57         C803   1.277       .  A
O57        Cu433   2.010       .  S
O58         C804   1.277       .  A
O58         Cu65   2.007   1_554  S
O59         C805   1.275       .  A
O59         Cu65   2.005       .  S
O60         C806   1.278       .  A
O60       Cu1905   2.013   1_455  S
O61          C70   1.277   1_545  A
O61       Cu1538   2.011   1_455  S
O62          C69   1.280   1_545  A
O62        Cu434   2.013       .  S
O63          C68   1.277   1_545  A
O63        Cu434   2.011   1_554  S
O64        C1539   1.277   1_545  A
O64       Cu1538   2.004       .  S
Cu65        O425   2.010       .  S
Cu65       O1900   2.013       .  S
Cu65      Cu1170   2.371       .  S
Cu66       O1533   2.011       .  S
Cu66        O430   2.014       .  S
Cu66        O431   2.011       .  S
Cu66       O1536   2.004       .  S
Cu66      Cu1169   2.371   1_545  S
C67         O793   1.277       .  A
C67        O1536   1.277   1_565  A
C67         C322   1.478       .  S
C68         O794   1.277       .  A
C68         C309   1.472       .  S
C69         O795   1.275       .  A
C69         C149   1.498   1_556  S
C70         O796   1.278       .  A
C70         C165   1.472       .  S
O71          C81   1.279       .  A
O71        Cu447   2.008   1_654  S
O72          C82   1.278       .  A
O72         Cu79   2.016       .  S
O73          C83   1.275       .  A
O73         Cu79   1.997       .  S
O74          C84   1.274       .  A
O74       Cu1919   1.997       .  S
O75          C84   1.280       .  A
O75       Cu1552   2.009   1_556  S
O76          C83   1.279       .  A
O76        Cu448   2.012       .  S
O77          C82   1.275       .  A
O77        Cu448   2.000       .  S
O78          C81   1.274       .  A
O78         Cu80   1.997   1_655  S
Cu79        O439   2.007   1_455  S
Cu79       O1914   1.995   1_455  S
Cu79       Cu448   2.368       .  S
Cu80       O1547   2.009   1_454  S
Cu80        O444   2.011       .  S
Cu80        O445   1.998   1_554  S
Cu80       Cu447   2.368   1_554  S
C81         C277   1.487       .  S
C82         C290   1.470       .  S
C83         C133   1.474       .  S
C84         C114   1.497       .  S
O85          C95   1.279       .  A
O85        Cu461   2.022       .  S
O86          C96   1.280       .  A
O86         Cu93   2.017       .  S
O87          C97   1.276       .  A
O87         Cu93   2.007       .  S
O88          C98   1.278       .  A
O88        Cu461   1.997       .  S
O89         C834   1.278       .  A
O89         Cu94   2.019       .  S
O90         C833   1.281   1_545  A
O90        Cu462   2.030       .  S
O91         C832   1.276       .  A
O91        Cu462   2.010       .  S
O92         C831   1.276   1_545  A
O92         Cu94   2.004       .  S
Cu93        O453   2.021   1_554  S
Cu93        O456   1.997       .  S
Cu93      Cu1198   2.372       .  S
Cu94        O458   2.030       .  S
Cu94        O459   2.009       .  S
Cu94      Cu1197   2.372   1_545  S
C95         O828   1.276       .  A
C95         C226   1.474       .  S
C96         O827   1.276       .  A
C96         C946   1.478       .  S
C97         O826   1.281       .  A
C97         C162   1.477       .  S
C98         O825   1.278       .  A
C98         C146   1.496       .  S
O99         C109   1.277       .  A
O99        Cu475   2.008       .  S
O100        C110   1.278       .  A
O100       Cu107   2.008       .  S
O101        C111   1.279       .  A
O101       Cu107   2.019   1_556  S
O102        C112   1.280       .  A
O102       Cu475   2.007       .  S
O103        C112   1.274       .  A
O103       Cu108   2.003       .  S
O104        C111   1.277       .  A
O104       Cu476   2.007   1_556  S
O105        C110   1.277       .  A
O105       Cu476   2.010       .  S
O106        C109   1.277       .  A
O106       Cu108   2.007       .  S
Cu107       O467   2.008   1_554  S
Cu107       O470   2.006       .  S
Cu107      Cu476   2.367       .  S
Cu108       O472   2.006       .  S
Cu108       O473   2.010       .  S
Cu108      Cu475   2.367       .  S
C109        C197   1.473       .  S
C110        C181   1.491       .  S
C111        C130   1.480       .  S
C112        C117   1.498       .  S
C113        C114   1.407   1_554  A
C113        C118   1.407       .  A
C113        H120   1.081       .  S
C114        C483   1.425       .  A
C115        C116   1.406       .  A
C115        C482   1.425       .  A
C115        C122   1.524       .  S
C116        C117   1.407       .  A
C116        H121   1.081       .  S
C117        C486   1.425       .  A
C118        C485   1.425   1_554  A
C118        C119   1.523       .  S
C119        F123   1.385       .  S
C119        F124   1.382       .  S
C119        F493   1.383   1_554  S
C122        F127   1.383       .  S
C122        F128   1.385       .  S
C122        F494   1.383       .  S
F125        C487   1.383       .  S
F126        C490   1.383   1_554  S
C129        C130   1.403   1_554  A
C129        C134   1.409       .  A
C129        H136   1.083       .  S
C130        C499   1.418       .  A
C131        C132   1.403       .  A
C131        C498   1.418       .  A
C131        C138   1.513       .  S
C132        C133   1.398       .  A
C132        H137   1.084       .  S
C133        C502   1.418       .  A
C134        C501   1.418       .  A
C134        C135   1.519       .  S
C135        F139   1.385       .  S
C135        F140   1.382       .  S
C135        F141   1.383       .  S
C138        F142   1.380       .  S
C138        F143   1.382       .  S
C138        F144   1.385       .  S
C145        C146   1.407       .  A
C145        C150   1.407       .  A
C145        H152   1.082       .  S
C146       C1251   1.421       .  A
C147        C148   1.409       .  A
C147       C1250   1.421       .  A
C147        C154   1.521       .  S
C148        C149   1.409   1_545  A
C148        H153   1.082       .  S
C149       C1254   1.425   1_554  A
C150       C1253   1.425       .  A
C150        C151   1.524       .  S
C151        F155   1.385       .  S
C151        F156   1.383       .  S
C151        F157   1.381       .  S
C154        F158   1.384       .  S
C154        F159   1.383   1_554  S
C154        F160   1.385       .  S
C161        C166   1.410       .  A
C161        C530   1.405       .  A
C161        H168   1.084       .  S
C162        C529   1.405   1_554  A
C162        C899   1.420       .  A
C163        C164   1.403       .  A
C163        C898   1.420       .  A
C163        C170   1.513       .  S
C164        C533   1.396   1_554  A
C164        H169   1.086       .  S
C165        C532   1.396       .  A
C165        C902   1.413   1_565  A
C166        C901   1.413       .  A
C166        C167   1.515       .  S
C167        F173   1.384       .  S
C167        F907   1.385       .  S
C167        F908   1.381       .  S
C170        F174   1.382   1_565  S
C170        F911   1.379       .  S
C170        F912   1.383       .  S
F171        C903   1.385       .  S
F172        C903   1.381       .  S
F175        C906   1.379       .  S
F176        C906   1.383       .  S
C177        C178   1.399       .  A
C177        C182   1.408       .  A
C177        H184   1.083       .  S
C178        C179   1.412       .  A
C179        C180   1.406       .  A
C179        C186   1.519       .  S
C180        C181   1.409       .  A
C180        H185   1.083       .  S
C181        C182   1.425       .  A
C182        C183   1.520       .  S
C183        F187   1.385       .  S
C183        F188   1.383       .  S
C183        F189   1.382       .  S
C186        F190   1.382       .  S
C186        F191   1.384       .  S
C186        F192   1.384       .  S
C193        C194   1.411       .  A
C193        C198   1.409       .  A
C193        H200   1.082       .  S
C194        C195   1.425       .  A
C195        C196   1.402       .  A
C195        C202   1.519       .  S
C196        C197   1.394       .  A
C196        H201   1.076       .  S
C197        C198   1.412       .  A
C198        C199   1.518       .  S
C199        F203   1.384       .  S
C199        F204   1.382       .  S
C199        F205   1.384       .  S
C202        F206   1.384       .  S
C202        F207   1.377       .  S
C202        F208   1.385       .  S
C209        C214   1.410       .  A
C209        C946   1.405       .  A
C209        H216   1.084       .  S
C210        C832   1.478       .  S
C210        C211   1.419       .  A
C210        C945   1.405   1_545  A
C211        C212   1.402       .  A
C211        C218   1.517       .  S
C212        C213   1.405       .  A
C212        H217   1.085       .  S
C213        C950   1.420   1_545  A
C214        C949   1.420       .  A
C214        C215   1.516       .  S
C215        F219   1.385       .  S
C215        F220   1.378       .  S
C215        F957   1.383       .  S
C218        F223   1.378       .  S
C218        F224   1.383       .  S
C218        F958   1.383       .  S
F221        C951   1.383   1_545  S
F222        C954   1.383       .  S
C225        C226   1.397       .  A
C225        C230   1.411       .  A
C225        H232   1.083       .  S
C226        C963   1.411       .  A
C227        C228   1.407       .  A
C227        C962   1.411   1_545  A
C227        C234   1.519       .  S
C228        C229   1.411   1_545  A
C228        H233   1.082       .  S
C229        C966   1.432       .  A
C230        C965   1.432       .  A
C230        C231   1.522       .  S
C231        F235   1.385       .  S
C231        F236   1.383       .  S
C231        F973   1.383       .  S
C234        F239   1.383       .  S
C234        F240   1.384       .  S
C234        F974   1.383   1_545  S
F237        C967   1.383   1_545  S
F238        C970   1.383       .  S
C241        C242   1.407       .  A
C241        C246   1.405       .  A
C241        H248   1.082       .  S
C242        C243   1.422       .  A
C243        C244   1.405       .  A
C243        C250   1.521       .  S
C244        C245   1.407       .  A
C244        H249   1.082       .  S
C245        C246   1.423       .  A
C246        C247   1.521       .  S
C247        F251   1.385       .  S
C247        F252   1.378       .  S
C247        F253   1.383       .  S
C250        F254   1.383       .  S
C250        F255   1.379       .  S
C250        F256   1.385       .  S
C257        C258   1.408       .  A
C257        C262   1.405       .  A
C257        H264   1.081       .  S
C258        C259   1.424       .  A
C259        C260   1.404       .  A
C259        C266   1.524       .  S
C260        C261   1.407       .  A
C260        H265   1.081       .  S
C261        C262   1.423       .  A
C262        C263   1.523       .  S
C263        F267   1.385       .  S
C263        F268   1.384       .  S
C263        F269   1.383       .  S
C266        F270   1.383       .  S
C266        F271   1.383       .  S
C266        F272   1.385       .  S
C273        C278   1.407       .  A
C273       C1746   1.400       .  A
C273        H280   1.083       .  S
C274       C1497   1.474       .  S
C274        C275   1.414   1_655  A
C274       C1745   1.400       .  A
C275        C276   1.404       .  A
C275        C282   1.518       .  S
C276        C277   1.406   1_455  A
C276        H281   1.083       .  S
C277       C1750   1.425       .  A
C278       C1749   1.425       .  A
C278        C279   1.521       .  S
C279        F283   1.385       .  S
C279        F284   1.384       .  S
C279       F1757   1.383       .  S
C282        F287   1.382       .  S
C282        F288   1.385       .  S
C282       F1758   1.381       .  S
F285       C1751   1.383       .  S
F286       C1754   1.381       .  S
C289        C290   1.396       .  A
C289        C294   1.408       .  A
C289        H296   1.083       .  S
C290       C1763   1.410   1_455  A
C291        C292   1.406       .  A
C291       C1762   1.410       .  A
C291        C298   1.519       .  S
C292       C1765   1.411       .  A
C292        H297   1.082       .  S
C293       C1498   1.500       .  S
C293        C294   1.431       .  A
C293       C1764   1.411   1_455  A
C294        C295   1.521       .  S
C295        F299   1.385       .  S
C295        F300   1.383       .  S
C295        F301   1.380       .  S
C298        F302   1.383       .  S
C298        F303   1.383       .  S
C298        F304   1.384       .  S
C305        C310   1.405       .  A
C305       C1042   1.409       .  A
C305        H312   1.082       .  S
C306       C1484   1.495       .  S
C306       C1041   1.409       .  A
C306       C1779   1.429   1_565  A
C307        C308   1.409       .  A
C307       C1778   1.429   1_545  A
C307        C314   1.522       .  S
C308       C1781   1.398   1_445  A
C308        H313   1.083       .  S
C309       C1780   1.398   1_565  A
C309       C1046   1.411       .  A
C310       C1045   1.411       .  A
C310        C311   1.519       .  S
C311        F315   1.384       .  S
C311        F316   1.382       .  S
C311       F1053   1.383       .  S
C314        F319   1.383       .  S
C314        F320   1.385       .  S
C314       F1054   1.383   1_545  S
F317       C1047   1.383   1_545  S
F318       C1050   1.383       .  S
C321        C326   1.403       .  A
C321       C1794   1.400   1_445  A
C321        H328   1.081       .  S
C322       C1793   1.400   1_565  A
C322       C1059   1.416       .  A
C323        C324   1.407       .  A
C323       C1058   1.416       .  A
C323        C330   1.517       .  S
C324        C325   1.405       .  A
C324        H329   1.083       .  S
C325       C1483   1.484       .  S
C325       C2534   1.420       .  A
C326       C2533   1.420   1_445  A
C326        C327   1.518       .  S
C327        F331   1.385       .  S
C327        F332   1.378       .  S
C327        F333   1.382       .  S
C330        F334   1.383       .  S
C330        F335   1.382       .  S
C330        F336   1.385       .  S
C337        C342   1.410       .  A
C337       C1810   1.403       .  A
C337        H344   1.083       .  S
C338       C1486   1.483       .  S
C338        C339   1.418       .  A
C338       C1809   1.403       .  A
C339        C340   1.409       .  A
C339        C346   1.518       .  S
C340        C341   1.403       .  A
C340        H345   1.083       .  S
C341       C1814   1.419       .  A
C342       C1813   1.419       .  A
C342        C343   1.518       .  S
C343        F347   1.385       .  S
C343        F348   1.382       .  S
C343        F349   1.382       .  S
C346        F350   1.382       .  S
C346        F351   1.383       .  S
C346        F352   1.385       .  S
C353        C358   1.405       .  A
C353       C1826   1.400   1_455  A
C353        H360   1.078       .  S
C354       C1485   1.483       .  S
C354        C355   1.417       .  A
C354       C1825   1.400       .  A
C355        C356   1.411       .  A
C355        C362   1.518       .  S
C356        C357   1.404       .  A
C356        H361   1.082       .  S
C357       C1830   1.415       .  A
C358       C1829   1.415   1_455  A
C358        C359   1.516       .  S
C359        F363   1.385       .  S
C359        F365   1.380       .  S
C359       F1836   1.384       .  S
C362        F366   1.382       .  S
C362        F368   1.385       .  S
C362       F1839   1.383       .  S
F364       C1831   1.384       .  S
F367       C1834   1.383       .  S
O369        C379   1.276   1_455  A
O369      Cu1113   2.002       .  S
O370        C380   1.275       .  A
O370       Cu377   2.004       .  S
O371        C381   1.280   1_455  A
O371       Cu377   2.024   1_545  S
O372        C382   1.279       .  A
O372      Cu1113   2.024       .  S
O373       C1854   1.277       .  A
O373       Cu378   2.013       .  S
O374       C1853   1.277       .  A
O374      Cu1114   2.014   1_545  S
O375       C1852   1.280       .  A
O375      Cu1114   2.014       .  S
O376       C1851   1.279       .  A
O376       Cu378   2.015       .  S
Cu377      O1105   2.002   1_565  S
Cu377      O1108   2.024       .  S
Cu377     Cu2586   2.368   1_455  S
Cu378      O1110   2.014       .  S
Cu378      O1111   2.014       .  S
Cu378     Cu2585   2.368       .  S
C379       O1848   1.279       .  A
C379       C2165   1.484       .  S
C380       O1847   1.280   1_455  A
C380       C2146   1.495       .  S
C381       O1846   1.277       .  A
C381       C2194   1.483       .  S
C382       O1845   1.277   1_455  A
C382       C2178   1.483       .  S
O383       C1865   1.275   1_455  A
O383       Cu391   2.000       .  S
O384       C1866   1.275       .  A
O384       Cu391   2.004       .  S
O385       C1867   1.278   1_455  A
O385       Cu391   2.016       .  S
O386       C1868   1.278       .  A
O386       Cu391   2.018       .  S
O387        C396   1.279       .  A
O387       Cu392   2.019       .  S
O388        C395   1.278       .  A
O388       Cu392   2.023       .  S
O389        C394   1.281       .  A
O389       Cu392   2.018       .  S
O390        C393   1.278       .  A
O390       Cu392   2.013       .  S
Cu391     Cu1864   2.368   1_455  S
Cu392     Cu1863   2.368       .  S
C393       O1855   1.275       .  A
C393       C2114   1.474       .  S
C394       O1856   1.275       .  A
C394       C2133   1.499       .  S
C395       O1857   1.278       .  A
C395        C725   1.483       .  S
C396       O1858   1.278       .  A
C396        C709   1.485       .  S
O397        C407   1.281       .  A
O397       Cu405   2.025       .  S
O398        C408   1.278       .  A
O398       Cu405   2.028   1_545  S
O399        C409   1.275       .  A
O399       Cu405   2.002   1_545  S
O400        C410   1.275       .  A
O400      Cu1141   2.006       .  S
O401        C410   1.278       .  A
O401      Cu1142   1.996       .  S
O402        C409   1.277       .  A
O402       Cu406   1.993   1_545  S
O403        C408   1.278       .  A
O403       Cu406   1.996   1_545  S
O404        C407   1.274       .  A
O404       Cu406   2.003       .  S
Cu405      O1136   2.006       .  S
Cu405      Cu406   2.358       .  S
Cu406      O1137   1.996       .  S
C407        C597   1.502       .  S
C408        C581   1.493       .  S
C409        C629   1.494       .  S
C410        C610   1.492       .  S
O411        C421   1.277       .  A
O411       Cu419   2.011       .  S
O412        C422   1.279       .  A
O412       Cu419   2.012       .  S
O413        C423   1.278       .  A
O413       Cu419   1.998       .  S
O414        C424   1.278       .  A
O414       Cu419   1.997       .  S
O415        C424   1.276       .  A
O415       Cu420   2.008       .  S
O416        C423   1.274       .  A
O416       Cu420   1.998       .  S
O417        C422   1.276       .  A
O417       Cu420   2.004       .  S
O418        C421   1.276       .  A
O418       Cu420   2.003       .  S
Cu419      Cu420   2.363       .  S
C421        C546   1.472       .  S
C422        C562   1.493       .  S
C423        C626   1.494       .  S
C424        C613   1.494       .  S
O425       C1171   1.277       .  A
O426       C1172   1.277       .  A
O426       Cu433   2.007       .  S
O427       C1173   1.275       .  A
O427       Cu433   2.005       .  S
O428       C1174   1.278       .  A
O428      Cu1537   2.013   1_455  S
O429        C438   1.277   1_545  A
O429      Cu1906   2.011   1_455  S
O430        C437   1.280   1_545  A
O431        C436   1.277   1_545  A
O432       C1907   1.277   1_545  A
O432      Cu1906   2.004       .  S
Cu433      O1532   2.013       .  S
Cu433      Cu802   2.371       .  S
Cu434      O1901   2.011       .  S
Cu434      O1904   2.004       .  S
Cu434      Cu801   2.371   1_545  S
C435       O1161   1.277       .  A
C435       O1904   1.277   1_565  A
C435        C690   1.478       .  S
C436       O1162   1.277       .  A
C436        C677   1.472       .  S
C437       O1163   1.275       .  A
C437        C517   1.498       .  S
C438       O1164   1.278       .  A
C438        C533   1.472       .  S
O439        C449   1.279       .  A
O440        C450   1.278       .  A
O440       Cu447   2.016       .  S
O441        C451   1.275       .  A
O441       Cu447   1.999   1_554  S
O442        C452   1.273       .  A
O442      Cu1551   1.995       .  S
O443        C452   1.280       .  A
O443      Cu1920   2.010       .  S
O444        C451   1.278       .  A
O445        C450   1.275       .  A
O446        C449   1.275       .  A
O446       Cu448   1.999   1_655  S
Cu447      O1546   1.997   1_455  S
Cu448      O1915   2.010   1_455  S
C449        C645   1.487       .  S
C450        C658   1.470       .  S
C451        C501   1.474       .  S
C452        C482   1.497       .  S
O453        C463   1.279       .  A
O454        C464   1.280       .  A
O454       Cu461   2.017       .  S
O455        C465   1.276       .  A
O455       Cu461   2.007       .  S
O456        C466   1.278       .  A
O457       C1202   1.278       .  A
O457       Cu462   2.019       .  S
O458       C1201   1.281   1_545  A
O459       C1200   1.276       .  A
O460       C1199   1.276   1_545  A
O460       Cu462   2.004   1_556  S
Cu461      Cu830   2.372       .  S
Cu462      Cu829   2.372   1_545  S
C463       O1196   1.276       .  A
C463        C594   1.474       .  S
C464       O1195   1.276       .  A
C464       C1314   1.478       .  S
C465       O1194   1.281       .  A
C465        C530   1.477       .  S
C466       O1193   1.278       .  A
C466        C514   1.496       .  S
O467        C477   1.277       .  A
O468        C478   1.278       .  A
O468       Cu475   2.008       .  S
O469        C479   1.279       .  A
O469       Cu475   2.020       .  S
O470        C480   1.279       .  A
O471        C480   1.275       .  A
O471       Cu476   2.004       .  S
O472        C479   1.276       .  A
O473        C478   1.277       .  A
O474        C477   1.277       .  A
O474       Cu476   2.007   1_556  S
C477        C565   1.473       .  S
C478        C549   1.491       .  S
C479        C498   1.479       .  S
C480        C485   1.498   1_554  S
C481        C482   1.407       .  A
C481        C486   1.407       .  A
C481        H488   1.081       .  S
C483        C484   1.406       .  A
C483        C490   1.524       .  S
C484        C485   1.407       .  A
C484        H489   1.081       .  S
C486        C487   1.523       .  S
C487        F491   1.385       .  S
C487        F492   1.382       .  S
C490        F495   1.383       .  S
C490        F496   1.385       .  S
C497        C498   1.403       .  A
C497        C502   1.409       .  A
C497        H504   1.083       .  S
C499        C500   1.403       .  A
C499        C506   1.513       .  S
C500        C501   1.398   1_556  A
C500        H505   1.084       .  S
C502        C503   1.519       .  S
C503        F507   1.385       .  S
C503        F508   1.382       .  S
C503        F509   1.383       .  S
C506        F510   1.380       .  S
C506        F511   1.382       .  S
C506        F512   1.385       .  S
C513        C514   1.407   1_556  A
C513        C518   1.407       .  A
C513        H520   1.082       .  S
C514        C883   1.421       .  A
C515        C882   1.421       .  A
C515        C516   1.409       .  A
C515        C522   1.521       .  S
C516        C517   1.409   1_545  A
C516        H521   1.082       .  S
C517        C886   1.425       .  A
C518        C885   1.425   1_556  A
C518        C519   1.524       .  S
C519        F523   1.385       .  S
C519        F524   1.383   1_556  S
C519        F525   1.381       .  S
C522        F526   1.384       .  S
C522        F527   1.383       .  S
C522        F528   1.385       .  S
C529        C534   1.410       .  A
C529        H536   1.084       .  S
C530       C1267   1.420       .  A
C531       C1266   1.420       .  A
C531        C532   1.403       .  A
C531        C538   1.513       .  S
C532        H537   1.086       .  S
C533       C1270   1.413   1_565  A
C534       C1269   1.413       .  A
C534        C535   1.515       .  S
C535       F1275   1.385       .  S
C535       F1276   1.381       .  S
C535        F541   1.384       .  S
C538        F542   1.382   1_565  S
C538       F1279   1.379       .  S
C538       F1280   1.383       .  S
F539       C1271   1.385       .  S
F540       C1271   1.381       .  S
F543       C1274   1.379       .  S
F544       C1274   1.383       .  S
C545        C546   1.399       .  A
C545        C550   1.408       .  A
C545        H552   1.083       .  S
C546        C547   1.412       .  A
C547        C548   1.406       .  A
C547        C554   1.519       .  S
C548        C549   1.409       .  A
C548        H553   1.083       .  S
C549        C550   1.425       .  A
C550        C551   1.520       .  S
C551        F555   1.385       .  S
C551        F556   1.383       .  S
C551        F557   1.382       .  S
C554        F558   1.382       .  S
C554        F559   1.384       .  S
C554        F560   1.384       .  S
C561        C562   1.411       .  A
C561        C566   1.409       .  A
C561        H568   1.082       .  S
C562        C563   1.425       .  A
C563        C564   1.402       .  A
C563        C570   1.519       .  S
C564        C565   1.394       .  A
C564        H569   1.076       .  S
C565        C566   1.412       .  A
C566        C567   1.518       .  S
C567        F571   1.384       .  S
C567        F572   1.382       .  S
C567        F573   1.384       .  S
C570        F574   1.384       .  S
C570        F575   1.377       .  S
C570        F576   1.385       .  S
C577       C1314   1.405       .  A
C577        C582   1.410       .  A
C577        H584   1.084       .  S
C578       C1200   1.478       .  S
C578       C1313   1.405   1_545  A
C578        C579   1.419       .  A
C579        C580   1.402       .  A
C579        C586   1.517       .  S
C580        C581   1.405       .  A
C580        H585   1.085       .  S
C581       C1318   1.420   1_545  A
C582       C1317   1.420       .  A
C582        C583   1.516       .  S
C583        F587   1.385       .  S
C583        F588   1.378       .  S
C583       F1325   1.383       .  S
C586       F1326   1.383       .  S
C586        F591   1.378       .  S
C586        F592   1.383       .  S
F589       C1319   1.383   1_545  S
F590       C1322   1.383       .  S
C593        C594   1.397       .  A
C593        C598   1.411       .  A
C593        H600   1.083       .  S
C594       C1331   1.411       .  A
C595       C1330   1.411   1_545  A
C595        C596   1.407       .  A
C595        C602   1.519       .  S
C596        C597   1.411   1_545  A
C596        H601   1.082       .  S
C597       C1334   1.432       .  A
C598       C1333   1.432       .  A
C598        C599   1.522       .  S
C599        F603   1.385       .  S
C599        F604   1.383       .  S
C599       F1341   1.383       .  S
C602       F1342   1.383   1_545  S
C602        F607   1.383       .  S
C602        F608   1.384       .  S
F605       C1335   1.383   1_545  S
F606       C1338   1.383       .  S
C609        C610   1.407       .  A
C609        C614   1.405       .  A
C609        H616   1.082       .  S
C610        C611   1.422       .  A
C611        C612   1.405       .  A
C611        C618   1.521       .  S
C612        C613   1.407       .  A
C612        H617   1.082       .  S
C613        C614   1.423       .  A
C614        C615   1.521       .  S
C615        F619   1.385       .  S
C615        F620   1.378       .  S
C615        F621   1.383       .  S
C618        F622   1.383       .  S
C618        F623   1.379       .  S
C618        F624   1.385       .  S
C625        C626   1.408       .  A
C625        C630   1.405       .  A
C625        H632   1.081       .  S
C626        C627   1.424       .  A
C627        C628   1.404       .  A
C627        C634   1.524       .  S
C628        C629   1.407       .  A
C628        H633   1.081       .  S
C629        C630   1.423       .  A
C630        C631   1.523       .  S
C631        F635   1.385       .  S
C631        F636   1.384       .  S
C631        F637   1.383       .  S
C634        F638   1.383       .  S
C634        F639   1.383       .  S
C634        F640   1.385       .  S
C641       C2114   1.400       .  A
C641        C646   1.407       .  A
C641        H648   1.083       .  S
C642       C1865   1.474       .  S
C642       C2113   1.400       .  A
C642        C643   1.414   1_655  A
C643        C644   1.404       .  A
C643        C650   1.518       .  S
C644        C645   1.406   1_455  A
C644        H649   1.083       .  S
C645       C2118   1.425       .  A
C646       C2117   1.425       .  A
C646        C647   1.521       .  S
C647        F651   1.385       .  S
C647        F652   1.383       .  S
C647       F2125   1.383       .  S
C650       F2126   1.381       .  S
C650        F655   1.382       .  S
C650        F656   1.385       .  S
F653       C2119   1.383       .  S
F654       C2122   1.381       .  S
C657        C658   1.396       .  A
C657        C662   1.408       .  A
C657        H664   1.083       .  S
C658       C2131   1.410   1_455  A
C659       C2130   1.410       .  A
C659        C660   1.406       .  A
C659        C666   1.519       .  S
C660       C2133   1.411       .  A
C660        H665   1.082       .  S
C661       C1866   1.499       .  S
C661       C2132   1.411   1_455  A
C661        C662   1.431       .  A
C662        C663   1.521       .  S
C663        F667   1.385       .  S
C663        F668   1.383       .  S
C663        F669   1.380       .  S
C666        F670   1.383       .  S
C666        F671   1.383       .  S
C666        F672   1.384       .  S
C673       C1410   1.409       .  A
C673        C678   1.405       .  A
C673        H680   1.082       .  S
C674       C1852   1.495       .  S
C674       C1409   1.409       .  A
C674       C2147   1.429   1_565  A
C675       C2146   1.429   1_545  A
C675        C676   1.409       .  A
C675        C682   1.522       .  S
C676       C2149   1.398   1_445  A
C676        H681   1.083       .  S
C677       C2148   1.398   1_565  A
C677       C1414   1.411       .  A
C678       C1413   1.411       .  A
C678        C679   1.519       .  S
C679        F683   1.384       .  S
C679        F684   1.382       .  S
C679       F1421   1.383       .  S
C682       F1422   1.383   1_545  S
C682        F687   1.383       .  S
C682        F688   1.385       .  S
F685       C1415   1.383   1_545  S
F686       C1418   1.383       .  S
C689       C2162   1.400   1_445  A
C689        C694   1.403       .  A
C689        H696   1.081       .  S
C690       C2161   1.400   1_565  A
C690       C1427   1.416       .  A
C691       C1426   1.416       .  A
C691        C692   1.407       .  A
C691        C698   1.517       .  S
C692        C693   1.405       .  A
C692        H697   1.083       .  S
C693       C1851   1.484       .  S
C693       C2902   1.420       .  A
C694       C2901   1.420   1_445  A
C694        C695   1.518       .  S
C695        F699   1.385       .  S
C695        F700   1.378       .  S
C695        F701   1.382       .  S
C698        F702   1.383       .  S
C698        F703   1.382       .  S
C698        F704   1.385       .  S
C705       C2178   1.403       .  A
C705        C710   1.410       .  A
C705        H712   1.083       .  S
C706       C1854   1.483       .  S
C706       C2177   1.403       .  A
C706        C707   1.418       .  A
C707        C708   1.409       .  A
C707        C714   1.518       .  S
C708        C709   1.403       .  A
C708        H713   1.083       .  S
C709       C2182   1.419       .  A
C710       C2181   1.419       .  A
C710        C711   1.518       .  S
C711        F715   1.385       .  S
C711        F716   1.382       .  S
C711        F717   1.382       .  S
C714        F718   1.382       .  S
C714        F719   1.383       .  S
C714        F720   1.385       .  S
C721       C2194   1.400   1_455  A
C721        C726   1.405       .  A
C721        H728   1.078       .  S
C722       C1853   1.483       .  S
C722       C2193   1.400       .  A
C722        C723   1.417       .  A
C723        C724   1.411       .  A
C723        C730   1.518       .  S
C724        C725   1.404       .  A
C724        H729   1.082       .  S
C725       C2198   1.415       .  A
C726       C2197   1.415   1_455  A
C726        C727   1.516       .  S
C727        F731   1.385       .  S
C727       F2204   1.384       .  S
C727        F733   1.380       .  S
C730        F734   1.382       .  S
C730       F2207   1.383       .  S
C730        F736   1.385       .  S
F732       C2199   1.384       .  S
F735       C2202   1.383       .  S
O737        C747   1.276   1_455  A
O738        C748   1.275       .  A
O738       Cu745   2.004       .  S
O739        C749   1.279   1_455  A
O739       Cu745   2.024       .  S
O740        C750   1.279       .  A
O741       C2222   1.277       .  A
O741       Cu746   2.013       .  S
O742       C2221   1.277       .  A
O743       C2220   1.280       .  A
O744       C2219   1.279   1_565  A
O744       Cu746   2.015       .  S
Cu745     Cu1482   2.368   1_455  S
Cu746     Cu1481   2.368       .  S
C747       O2216   1.279   1_545  A
C747       C2533   1.484   1_545  S
C748       O2215   1.280   1_455  A
C748       C2514   1.495       .  S
C749       O2214   1.277       .  A
C749       C2562   1.483       .  S
C750       O2213   1.277   1_455  A
C750       C2546   1.483       .  S
O751       C2233   1.275   1_455  A
O751       Cu759   2.000       .  S
O752       C2234   1.275       .  A
O752       Cu759   2.004       .  S
O753       C2235   1.278   1_455  A
O753       Cu759   2.016       .  S
O754       C2236   1.278       .  A
O754       Cu759   2.018       .  S
O755        C764   1.279       .  A
O755       Cu760   2.019       .  S
O756        C763   1.278       .  A
O756       Cu760   2.023       .  S
O757        C762   1.281       .  A
O757       Cu760   2.018       .  S
O758        C761   1.278       .  A
O758       Cu760   2.013       .  S
Cu759     Cu2232   2.368   1_455  S
Cu760     Cu2231   2.368       .  S
C761       O2223   1.275       .  A
C761       C2482   1.474       .  S
C762       O2224   1.275       .  A
C762       C2501   1.500       .  S
C763       O2225   1.278       .  A
C763       C1093   1.483       .  S
C764       O2226   1.278       .  A
C764       C1077   1.485       .  S
O765        C775   1.281       .  A
O765       Cu773   2.024       .  S
O766        C776   1.278       .  A
O766       Cu773   2.028       .  S
O767        C777   1.275       .  A
O767       Cu773   2.002       .  S
O768        C778   1.275       .  A
O769        C778   1.278       .  A
O770        C777   1.277       .  A
O770       Cu774   1.993       .  S
O771        C776   1.278       .  A
O771       Cu774   1.996       .  S
O772        C775   1.274       .  A
O772       Cu774   2.003       .  S
Cu773      Cu774   2.358       .  S
C775        C965   1.502       .  S
C776        C949   1.493       .  S
C777        C997   1.494       .  S
C778        C978   1.492       .  S
O779        C789   1.277       .  A
O779       Cu787   2.011       .  S
O780        C790   1.279       .  A
O780       Cu787   2.012       .  S
O781        C791   1.278       .  A
O781       Cu787   1.998       .  S
O782        C792   1.278       .  A
O782       Cu787   1.997       .  S
O783        C792   1.276       .  A
O783       Cu788   2.008       .  S
O784        C791   1.274       .  A
O784       Cu788   1.998       .  S
O785        C790   1.276       .  A
O785       Cu788   2.004       .  S
O786        C789   1.276       .  A
O786       Cu788   2.002       .  S
Cu787      Cu788   2.363       .  S
C789        C914   1.472       .  S
C790        C930   1.493       .  S
C791        C994   1.494       .  S
C792        C981   1.494       .  S
O793      Cu1169   2.010       .  S
O794       Cu801   2.007   1_554  S
O795       Cu801   2.005       .  S
O796      Cu2641   2.013   1_455  S
O797        C806   1.277       .  A
O797      Cu2274   2.011   1_455  S
O798        C805   1.280       .  A
O798      Cu1170   2.013       .  S
O799        C804   1.277       .  A
O799      Cu1170   2.011   1_554  S
O800       C2275   1.277       .  A
O800      Cu2274   2.004       .  S
Cu801      O1161   2.010       .  S
Cu801      O2636   2.013       .  S
Cu802      O2269   2.011       .  S
Cu802      O1166   2.014       .  S
Cu802      O1167   2.011       .  S
Cu802      O2272   2.004       .  S
C803       O2272   1.277       .  A
C803       C1058   1.478       .  S
C804       C1045   1.472       .  S
C805        C885   1.498   1_556  S
C806        C901   1.472       .  S
O807        C817   1.279       .  A
O807      Cu1183   2.008   1_654  S
O808        C818   1.278       .  A
O808       Cu815   2.016       .  S
O809        C819   1.275       .  A
O809       Cu815   1.997       .  S
O810        C820   1.274       .  A
O810      Cu2655   1.997       .  S
O811        C820   1.280       .  A
O811      Cu2288   2.009   1_556  S
O812        C819   1.279       .  A
O812      Cu1184   2.012       .  S
O813        C818   1.275       .  A
O813      Cu1184   2.000       .  S
O814        C817   1.274       .  A
O814       Cu816   1.997   1_655  S
Cu815      O1175   2.007   1_455  S
Cu815      O2650   1.995   1_455  S
Cu815     Cu1184   2.368       .  S
Cu816      O2283   2.009   1_454  S
Cu816      O1180   2.011       .  S
Cu816      O1181   1.998   1_554  S
Cu816     Cu1183   2.368   1_554  S
C817       C1013   1.487       .  S
C818       C1026   1.470       .  S
C819        C869   1.474       .  S
C820        C850   1.497       .  S
O821        C831   1.279       .  A
O821      Cu1197   2.022       .  S
O822        C832   1.280   1_565  A
O822       Cu829   2.017       .  S
O823        C833   1.276       .  A
O823       Cu829   2.007       .  S
O824        C834   1.278   1_565  A
O824      Cu1197   1.997       .  S
O825       Cu830   2.019       .  S
O826      Cu1198   2.030       .  S
O827      Cu1198   2.010       .  S
O828       Cu830   2.004       .  S
Cu829      O1189   2.021   1_554  S
Cu829      O1192   1.997       .  S
Cu830      O1194   2.030       .  S
Cu830      O1195   2.009       .  S
C831        C962   1.474       .  S
C833        C898   1.477       .  S
C834        C882   1.496       .  S
O835        C845   1.277       .  A
O835      Cu1211   2.008       .  S
O836        C846   1.278       .  A
O836       Cu843   2.008       .  S
O837        C847   1.279       .  A
O837       Cu843   2.019   1_556  S
O838        C848   1.280       .  A
O838      Cu1211   2.007       .  S
O839        C848   1.274       .  A
O839       Cu844   2.003       .  S
O840        C847   1.277       .  A
O840      Cu1212   2.007   1_556  S
O841        C846   1.277       .  A
O841      Cu1212   2.010       .  S
O842        C845   1.277       .  A
O842       Cu844   2.007       .  S
Cu843      O1203   2.008   1_554  S
Cu843      O1206   2.006       .  S
Cu843     Cu1212   2.367       .  S
Cu844      O1208   2.006       .  S
Cu844      O1209   2.010       .  S
Cu844     Cu1211   2.367       .  S
C845        C933   1.473       .  S
C846        C917   1.491       .  S
C847        C866   1.480       .  S
C848        C853   1.498       .  S
C849        C850   1.407   1_554  A
C849        C854   1.407       .  A
C849        H856   1.081       .  S
C850       C1219   1.425       .  A
C851       C1218   1.425       .  A
C851        C852   1.406       .  A
C851        C858   1.524       .  S
C852        C853   1.407       .  A
C852        H857   1.081       .  S
C853       C1222   1.425       .  A
C854       C1221   1.425   1_554  A
C854        C855   1.523       .  S
C855        F859   1.385       .  S
C855        F860   1.382       .  S
C855       F1229   1.383   1_554  S
C858       F1230   1.383       .  S
C858        F863   1.383       .  S
C858        F864   1.385       .  S
F861       C1223   1.383       .  S
F862       C1226   1.383   1_554  S
C865        C866   1.403   1_554  A
C865        C870   1.409       .  A
C865        H872   1.083       .  S
C866       C1235   1.418       .  A
C867       C1234   1.418       .  A
C867        C868   1.403       .  A
C867        C874   1.513       .  S
C868        C869   1.398       .  A
C868        H873   1.084       .  S
C869       C1238   1.418       .  A
C870       C1237   1.418       .  A
C870        C871   1.519       .  S
C871        F875   1.385       .  S
C871        F876   1.382       .  S
C871        F877   1.383       .  S
C874        F878   1.380       .  S
C874        F879   1.382       .  S
C874        F880   1.385       .  S
C881        C882   1.407   1_565  A
C881        C886   1.407       .  A
C881        H888   1.082       .  S
C883        C884   1.409       .  A
C883        C890   1.521       .  S
C884        C885   1.409       .  A
C884        H889   1.082       .  S
C886        C887   1.524       .  S
C887        F891   1.385       .  S
C887        F892   1.383       .  S
C887        F893   1.381       .  S
C890        F894   1.384       .  S
C890        F895   1.383   1_554  S
C890        F896   1.385       .  S
C897       C1266   1.405   1_545  A
C897        C902   1.410       .  A
C897        H904   1.084       .  S
C898       C1265   1.405   1_564  A
C899        C900   1.403       .  A
C899        C906   1.513       .  S
C900       C1269   1.396   1_554  A
C900        H905   1.086       .  S
C901       C1268   1.396       .  A
C902        C903   1.515       .  S
C903        F909   1.384   1_545  S
C906        F910   1.382       .  S
C913        C914   1.399       .  A
C913        C918   1.408       .  A
C913        H920   1.083       .  S
C914        C915   1.412       .  A
C915        C916   1.406       .  A
C915        C922   1.519       .  S
C916        C917   1.409       .  A
C916        H921   1.083       .  S
C917        C918   1.425       .  A
C918        C919   1.520       .  S
C919        F923   1.385       .  S
C919        F924   1.383       .  S
C919        F925   1.382       .  S
C922        F926   1.382       .  S
C922        F927   1.384       .  S
C922        F928   1.384       .  S
C929        C930   1.411       .  A
C929        C934   1.409       .  A
C929        H936   1.082       .  S
C930        C931   1.425       .  A
C931        C932   1.402       .  A
C931        C938   1.519       .  S
C932        C933   1.394       .  A
C932        H937   1.076       .  S
C933        C934   1.412       .  A
C934        C935   1.518       .  S
C935        F939   1.384       .  S
C935        F940   1.382       .  S
C935        F941   1.384       .  S
C938        F942   1.384       .  S
C938        F943   1.377       .  S
C938        F944   1.385       .  S
C945        C950   1.410       .  A
C945        H952   1.084       .  S
C946        C947   1.419       .  A
C947        C948   1.402       .  A
C947        C954   1.517       .  S
C948        C949   1.405       .  A
C948        H953   1.085       .  S
C950        C951   1.516       .  S
C951        F955   1.385       .  S
C951        F956   1.378       .  S
C954        F959   1.378       .  S
C954        F960   1.383       .  S
C961        C962   1.397       .  A
C961        C966   1.411       .  A
C961        H968   1.083       .  S
C963        C964   1.407       .  A
C963        C970   1.519       .  S
C964        C965   1.411       .  A
C964        H969   1.082       .  S
C966        C967   1.522       .  S
C967        F971   1.385       .  S
C967        F972   1.383       .  S
C970        F975   1.383       .  S
C970        F976   1.384       .  S
C977        C978   1.407       .  A
C977        C982   1.405       .  A
C977        H984   1.082       .  S
C978        C979   1.422       .  A
C979        C980   1.405       .  A
C979        C986   1.521       .  S
C980        C981   1.407       .  A
C980        H985   1.082       .  S
C981        C982   1.423       .  A
C982        C983   1.521       .  S
C983        F987   1.385       .  S
C983        F988   1.378       .  S
C983        F989   1.383       .  S
C986        F990   1.383       .  S
C986        F991   1.379       .  S
C986        F992   1.385       .  S
C993        C994   1.408       .  A
C993        C998   1.405       .  A
C993       H1000   1.081       .  S
C994        C995   1.424       .  A
C995        C996   1.404       .  A
C995       C1002   1.524       .  S
C996        C997   1.407       .  A
C996       H1001   1.081       .  S
C997        C998   1.423       .  A
C998        C999   1.523       .  S
C999       F1003   1.385       .  S
C999       F1004   1.384       .  S
C999       F1005   1.383       .  S
C1002      F1006   1.383       .  S
C1002      F1007   1.383       .  S
C1002      F1008   1.385       .  S
C1009      C2482   1.400       .  A
C1009      C1014   1.407       .  A
C1009      H1016   1.083       .  S
C1010      C2233   1.474       .  S
C1010      C2481   1.400       .  A
C1010      C1011   1.414   1_655  A
C1011      C1012   1.404       .  A
C1011      C1018   1.518       .  S
C1012      C1013   1.406   1_455  A
C1012      H1017   1.083       .  S
C1013      C2486   1.425       .  A
C1014      C2485   1.425       .  A
C1014      C1015   1.521       .  S
C1015      F1019   1.385       .  S
C1015      F1020   1.384       .  S
C1015      F2493   1.383       .  S
C1018      F2494   1.381       .  S
C1018      F1023   1.382       .  S
C1018      F1024   1.385       .  S
F1021      C2487   1.383       .  S
F1022      C2490   1.381       .  S
C1025      C1026   1.396       .  A
C1025      C1030   1.408       .  A
C1025      H1032   1.083       .  S
C1026      C2499   1.410   1_455  A
C1027      C2498   1.410       .  A
C1027      C1028   1.406       .  A
C1027      C1034   1.519       .  S
C1028      C2501   1.411       .  A
C1028      H1033   1.082       .  S
C1029      C2234   1.500       .  S
C1029      C2500   1.411   1_455  A
C1029      C1030   1.431       .  A
C1030      C1031   1.521       .  S
C1031      F1035   1.385       .  S
C1031      F1036   1.383       .  S
C1031      F1037   1.380       .  S
C1034      F1038   1.383       .  S
C1034      F1039   1.383       .  S
C1034      F1040   1.384       .  S
C1041      C1046   1.405       .  A
C1041      H1048   1.082       .  S
C1042      C2220   1.495       .  S
C1042      C2515   1.429       .  A
C1043      C2514   1.429       .  A
C1043      C1044   1.409       .  A
C1043      C1050   1.522       .  S
C1044      C2517   1.398   1_455  A
C1044      H1049   1.083       .  S
C1045      C2516   1.398       .  A
C1046      C1047   1.519       .  S
C1047      F1051   1.384       .  S
C1047      F1052   1.382       .  S
C1050      F1055   1.383       .  S
C1050      F1056   1.385       .  S
C1057      C2530   1.400   1_455  A
C1057      C1062   1.403       .  A
C1057      H1064   1.081       .  S
C1058      C2529   1.400       .  A
C1059      C1060   1.407       .  A
C1059      C1066   1.517       .  S
C1060      C1061   1.405       .  A
C1060      H1065   1.083       .  S
C1061      C2219   1.484   1_565  S
C1061      C1798   1.420   1_565  A
C1062      C1797   1.420   1_455  A
C1062      C1063   1.518       .  S
C1063      F1067   1.385       .  S
C1063      F1068   1.378       .  S
C1063      F1069   1.382       .  S
C1066      F1070   1.383       .  S
C1066      F1071   1.382       .  S
C1066      F1072   1.385       .  S
C1073      C2546   1.403       .  A
C1073      C1078   1.410       .  A
C1073      H1080   1.083       .  S
C1074      C2222   1.483       .  S
C1074      C2545   1.403       .  A
C1074      C1075   1.418       .  A
C1075      C1076   1.409       .  A
C1075      C1082   1.518       .  S
C1076      C1077   1.403       .  A
C1076      H1081   1.083       .  S
C1077      C2550   1.419       .  A
C1078      C2549   1.419       .  A
C1078      C1079   1.518       .  S
C1079      F1083   1.385       .  S
C1079      F1084   1.382       .  S
C1079      F1085   1.382       .  S
C1082      F1086   1.382       .  S
C1082      F1087   1.383       .  S
C1082      F1088   1.385       .  S
C1089      C2562   1.400   1_455  A
C1089      C1094   1.405       .  A
C1089      H1096   1.078       .  S
C1090      C2221   1.483       .  S
C1090      C2561   1.400       .  A
C1090      C1091   1.417       .  A
C1091      C1092   1.411       .  A
C1091      C1098   1.518       .  S
C1092      C1093   1.404       .  A
C1092      H1097   1.082       .  S
C1093      C2566   1.415       .  A
C1094      C2565   1.415   1_455  A
C1094      C1095   1.516       .  S
C1095      F1099   1.385       .  S
C1095      F2572   1.384       .  S
C1095      F1101   1.380       .  S
C1098      F1102   1.382       .  S
C1098      F2575   1.383       .  S
C1098      F1104   1.385       .  S
F1100      C2567   1.384       .  S
F1103      C2570   1.383       .  S
O1105      C1115   1.276   1_455  A
O1106      C1116   1.275       .  A
O1106     Cu1113   2.004       .  S
O1107      C1117   1.280   1_455  A
O1107     Cu1113   2.024       .  S
O1108      C1118   1.279       .  A
O1109      C2590   1.277       .  A
O1109     Cu1114   2.013       .  S
O1110      C2589   1.277       .  A
O1111      C2588   1.280       .  A
O1112      C2587   1.279   1_565  A
O1112     Cu1114   2.015       .  S
Cu1113    Cu1850   2.368   1_455  S
Cu1114    Cu1849   2.368       .  S
C1115      O2584   1.279   1_545  A
C1115      C2901   1.484   1_545  S
C1116      O2583   1.280   1_455  A
C1116      C2882   1.495       .  S
C1117      O2582   1.277       .  A
C1117      C2930   1.483       .  S
C1118      O2581   1.277   1_455  A
C1118      C2914   1.483       .  S
O1119      C2601   1.275   1_455  A
O1119     Cu1127   2.000       .  S
O1120      C2602   1.275       .  A
O1120     Cu1127   2.004       .  S
O1121      C2603   1.278   1_455  A
O1121     Cu1127   2.016       .  S
O1122      C2604   1.278       .  A
O1122     Cu1127   2.018       .  S
O1123      C1132   1.279       .  A
O1123     Cu1128   2.019       .  S
O1124      C1131   1.278       .  A
O1124     Cu1128   2.023       .  S
O1125      C1130   1.281       .  A
O1125     Cu1128   2.018       .  S
O1126      C1129   1.278       .  A
O1126     Cu1128   2.013       .  S
Cu1127    Cu2600   2.368   1_455  S
Cu1128    Cu2599   2.368       .  S
C1129      O2591   1.275       .  A
C1129      C2850   1.474       .  S
C1130      O2592   1.275       .  A
C1130      C2869   1.499       .  S
C1131      O2593   1.278       .  A
C1131      C1461   1.483       .  S
C1132      O2594   1.278       .  A
C1132      C1445   1.485       .  S
O1133      C1143   1.281       .  A
O1133     Cu1141   2.025       .  S
O1134      C1144   1.278       .  A
O1134     Cu1141   2.028       .  S
O1135      C1145   1.275       .  A
O1135     Cu1141   2.002       .  S
O1136      C1146   1.275       .  A
O1137      C1146   1.278       .  A
O1138      C1145   1.277       .  A
O1138     Cu1142   1.993       .  S
O1139      C1144   1.278       .  A
O1139     Cu1142   1.996       .  S
O1140      C1143   1.274       .  A
O1140     Cu1142   2.003       .  S
Cu1141    Cu1142   2.358       .  S
C1143      C1333   1.502       .  S
C1144      C1317   1.493       .  S
C1145      C1365   1.494       .  S
C1146      C1346   1.492       .  S
O1147      C1157   1.277       .  A
O1147     Cu1155   2.011       .  S
O1148      C1158   1.279       .  A
O1148     Cu1155   2.012       .  S
O1149      C1159   1.278       .  A
O1149     Cu1155   1.998       .  S
O1150      C1160   1.278       .  A
O1150     Cu1155   1.997       .  S
O1151      C1160   1.276       .  A
O1151     Cu1156   2.008       .  S
O1152      C1159   1.274       .  A
O1152     Cu1156   1.998       .  S
O1153      C1158   1.276       .  A
O1153     Cu1156   2.004       .  S
O1154      C1157   1.276       .  A
O1154     Cu1156   2.003       .  S
Cu1155    Cu1156   2.363       .  S
C1157      C1282   1.472       .  S
C1158      C1298   1.493       .  S
C1159      C1362   1.494       .  S
C1160      C1349   1.494       .  S
O1162     Cu1169   2.007       .  S
O1163     Cu1169   2.005       .  S
O1164     Cu2273   2.013   1_455  S
O1165      C1174   1.277       .  A
O1165     Cu2642   2.011   1_455  S
O1166      C1173   1.280       .  A
O1167      C1172   1.277       .  A
O1168      C2643   1.277       .  A
O1168     Cu2642   2.004       .  S
Cu1169     O2268   2.013       .  S
Cu1170     O2637   2.011       .  S
Cu1170     O2640   2.004       .  S
C1171      O2640   1.277       .  A
C1171      C1426   1.478       .  S
C1172      C1413   1.472       .  S
C1173      C1253   1.498       .  S
C1174      C1269   1.472       .  S
O1175      C1185   1.279       .  A
O1176      C1186   1.278       .  A
O1176     Cu1183   2.016       .  S
O1177      C1187   1.275       .  A
O1177     Cu1183   1.999   1_554  S
O1178      C1188   1.273       .  A
O1178     Cu2287   1.995       .  S
O1179      C1188   1.280       .  A
O1179     Cu2656   2.010       .  S
O1180      C1187   1.278       .  A
O1181      C1186   1.275       .  A
O1182      C1185   1.275       .  A
O1182     Cu1184   1.999   1_655  S
Cu1183     O2282   1.997   1_455  S
Cu1184     O2651   2.010   1_455  S
C1185      C1381   1.487       .  S
C1186      C1394   1.470       .  S
C1187      C1237   1.474       .  S
C1188      C1218   1.497       .  S
O1189      C1199   1.279       .  A
O1190      C1200   1.280   1_565  A
O1190     Cu1197   2.017       .  S
O1191      C1201   1.276       .  A
O1191     Cu1197   2.007       .  S
O1192      C1202   1.278   1_565  A
O1193     Cu1198   2.019       .  S
O1196     Cu1198   2.004   1_556  S
C1199      C1330   1.474       .  S
C1201      C1266   1.477       .  S
C1202      C1250   1.496       .  S
O1203      C1213   1.277       .  A
O1204      C1214   1.278       .  A
O1204     Cu1211   2.008       .  S
O1205      C1215   1.279       .  A
O1205     Cu1211   2.020       .  S
O1206      C1216   1.279       .  A
O1207      C1216   1.275       .  A
O1207     Cu1212   2.004       .  S
O1208      C1215   1.276       .  A
O1209      C1214   1.277       .  A
O1210      C1213   1.277       .  A
O1210     Cu1212   2.007   1_556  S
C1213      C1301   1.473       .  S
C1214      C1285   1.491       .  S
C1215      C1234   1.479       .  S
C1216      C1221   1.498   1_554  S
C1217      C1218   1.407       .  A
C1217      C1222   1.407       .  A
C1217      H1224   1.081       .  S
C1219      C1220   1.406       .  A
C1219      C1226   1.524       .  S
C1220      C1221   1.407       .  A
C1220      H1225   1.081       .  S
C1222      C1223   1.523       .  S
C1223      F1227   1.385       .  S
C1223      F1228   1.382       .  S
C1226      F1231   1.383       .  S
C1226      F1232   1.385       .  S
C1233      C1234   1.403       .  A
C1233      C1238   1.409       .  A
C1233      H1240   1.083       .  S
C1235      C1236   1.403       .  A
C1235      C1242   1.513       .  S
C1236      C1237   1.398   1_556  A
C1236      H1241   1.084       .  S
C1238      C1239   1.519       .  S
C1239      F1243   1.385       .  S
C1239      F1244   1.382       .  S
C1239      F1245   1.383       .  S
C1242      F1246   1.380       .  S
C1242      F1247   1.382       .  S
C1242      F1248   1.385       .  S
C1249      C1250   1.407   1_566  A
C1249      C1254   1.407       .  A
C1249      H1256   1.082       .  S
C1251      C1252   1.409       .  A
C1251      C1258   1.521       .  S
C1252      C1253   1.409       .  A
C1252      H1257   1.082       .  S
C1254      C1255   1.524       .  S
C1255      F1259   1.385       .  S
C1255      F1260   1.383   1_556  S
C1255      F1261   1.381       .  S
C1258      F1262   1.384       .  S
C1258      F1263   1.383       .  S
C1258      F1264   1.385       .  S
C1265      C1270   1.410       .  A
C1265      H1272   1.084       .  S
C1267      C1268   1.403       .  A
C1267      C1274   1.513       .  S
C1268      H1273   1.086       .  S
C1270      C1271   1.515       .  S
C1271      F1277   1.384   1_545  S
C1274      F1278   1.382       .  S
C1281      C1282   1.399       .  A
C1281      C1286   1.408       .  A
C1281      H1288   1.083       .  S
C1282      C1283   1.412       .  A
C1283      C1284   1.406       .  A
C1283      C1290   1.519       .  S
C1284      C1285   1.409       .  A
C1284      H1289   1.083       .  S
C1285      C1286   1.425       .  A
C1286      C1287   1.520       .  S
C1287      F1291   1.385       .  S
C1287      F1292   1.383       .  S
C1287      F1293   1.382       .  S
C1290      F1294   1.382       .  S
C1290      F1295   1.384       .  S
C1290      F1296   1.384       .  S
C1297      C1298   1.411       .  A
C1297      C1302   1.409       .  A
C1297      H1304   1.082       .  S
C1298      C1299   1.425       .  A
C1299      C1300   1.402       .  A
C1299      C1306   1.519       .  S
C1300      C1301   1.394       .  A
C1300      H1305   1.076       .  S
C1301      C1302   1.412       .  A
C1302      C1303   1.518       .  S
C1303      F1307   1.384       .  S
C1303      F1308   1.382       .  S
C1303      F1309   1.384       .  S
C1306      F1310   1.384       .  S
C1306      F1311   1.377       .  S
C1306      F1312   1.385       .  S
C1313      C1318   1.410       .  A
C1313      H1320   1.084       .  S
C1314      C1315   1.419       .  A
C1315      C1316   1.402       .  A
C1315      C1322   1.517       .  S
C1316      C1317   1.405       .  A
C1316      H1321   1.085       .  S
C1318      C1319   1.516       .  S
C1319      F1323   1.385       .  S
C1319      F1324   1.378       .  S
C1322      F1327   1.378       .  S
C1322      F1328   1.383       .  S
C1329      C1330   1.397       .  A
C1329      C1334   1.411       .  A
C1329      H1336   1.083       .  S
C1331      C1332   1.407       .  A
C1331      C1338   1.519       .  S
C1332      C1333   1.411       .  A
C1332      H1337   1.082       .  S
C1334      C1335   1.522       .  S
C1335      F1339   1.385       .  S
C1335      F1340   1.383       .  S
C1338      F1343   1.383       .  S
C1338      F1344   1.384       .  S
C1345      C1346   1.407       .  A
C1345      C1350   1.405       .  A
C1345      H1352   1.082       .  S
C1346      C1347   1.422       .  A
C1347      C1348   1.405       .  A
C1347      C1354   1.521       .  S
C1348      C1349   1.407       .  A
C1348      H1353   1.082       .  S
C1349      C1350   1.423       .  A
C1350      C1351   1.521       .  S
C1351      F1355   1.385       .  S
C1351      F1356   1.378       .  S
C1351      F1357   1.383       .  S
C1354      F1358   1.383       .  S
C1354      F1359   1.379       .  S
C1354      F1360   1.385       .  S
C1361      C1362   1.408       .  A
C1361      C1366   1.405       .  A
C1361      H1368   1.081       .  S
C1362      C1363   1.424       .  A
C1363      C1364   1.404       .  A
C1363      C1370   1.524       .  S
C1364      C1365   1.407       .  A
C1364      H1369   1.081       .  S
C1365      C1366   1.423       .  A
C1366      C1367   1.523       .  S
C1367      F1371   1.385       .  S
C1367      F1372   1.384       .  S
C1367      F1373   1.383       .  S
C1370      F1374   1.383       .  S
C1370      F1375   1.383       .  S
C1370      F1376   1.385       .  S
C1377      C2850   1.400       .  A
C1377      C1382   1.407       .  A
C1377      H1384   1.083       .  S
C1378      C2601   1.474       .  S
C1378      C2849   1.400       .  A
C1378      C1379   1.414   1_655  A
C1379      C1380   1.404       .  A
C1379      C1386   1.518       .  S
C1380      C1381   1.406   1_455  A
C1380      H1385   1.083       .  S
C1381      C2854   1.425       .  A
C1382      C2853   1.425       .  A
C1382      C1383   1.521       .  S
C1383      F1387   1.385       .  S
C1383      F1388   1.383       .  S
C1383      F2861   1.383       .  S
C1386      F2862   1.381       .  S
C1386      F1391   1.382       .  S
C1386      F1392   1.385       .  S
F1389      C2855   1.383       .  S
F1390      C2858   1.381       .  S
C1393      C1394   1.396       .  A
C1393      C1398   1.408       .  A
C1393      H1400   1.083       .  S
C1394      C2867   1.410   1_455  A
C1395      C2866   1.410       .  A
C1395      C1396   1.406       .  A
C1395      C1402   1.519       .  S
C1396      C2869   1.411       .  A
C1396      H1401   1.082       .  S
C1397      C2602   1.499       .  S
C1397      C2868   1.411   1_455  A
C1397      C1398   1.431       .  A
C1398      C1399   1.521       .  S
C1399      F1403   1.385       .  S
C1399      F1404   1.383       .  S
C1399      F1405   1.380       .  S
C1402      F1406   1.383       .  S
C1402      F1407   1.383       .  S
C1402      F1408   1.384       .  S
C1409      C1414   1.405       .  A
C1409      H1416   1.082       .  S
C1410      C2588   1.495       .  S
C1410      C2883   1.429       .  A
C1411      C2882   1.429       .  A
C1411      C1412   1.409       .  A
C1411      C1418   1.522       .  S
C1412      C2885   1.398   1_455  A
C1412      H1417   1.083       .  S
C1413      C2884   1.398       .  A
C1414      C1415   1.519       .  S
C1415      F1419   1.384       .  S
C1415      F1420   1.382       .  S
C1418      F1423   1.383       .  S
C1418      F1424   1.385       .  S
C1425      C2898   1.400   1_455  A
C1425      C1430   1.403       .  A
C1425      H1432   1.081       .  S
C1426      C2897   1.400       .  A
C1427      C1428   1.407       .  A
C1427      C1434   1.517       .  S
C1428      C1429   1.405       .  A
C1428      H1433   1.083       .  S
C1429      C2587   1.484   1_565  S
C1429      C2166   1.420   1_565  A
C1430      C2165   1.420   1_455  A
C1430      C1431   1.518       .  S
C1431      F1435   1.385       .  S
C1431      F1436   1.378       .  S
C1431      F1437   1.382       .  S
C1434      F1438   1.383       .  S
C1434      F1439   1.382       .  S
C1434      F1440   1.385       .  S
C1441      C2914   1.403       .  A
C1441      C1446   1.410       .  A
C1441      H1448   1.083       .  S
C1442      C2590   1.483       .  S
C1442      C2913   1.403       .  A
C1442      C1443   1.418       .  A
C1443      C1444   1.409       .  A
C1443      C1450   1.518       .  S
C1444      C1445   1.403       .  A
C1444      H1449   1.083       .  S
C1445      C2918   1.419       .  A
C1446      C2917   1.419       .  A
C1446      C1447   1.518       .  S
C1447      F1451   1.385       .  S
C1447      F1452   1.382       .  S
C1447      F1453   1.382       .  S
C1450      F1454   1.382       .  S
C1450      F1455   1.383       .  S
C1450      F1456   1.385       .  S
C1457      C2930   1.400   1_455  A
C1457      C1462   1.405       .  A
C1457      H1464   1.078       .  S
C1458      C2589   1.483       .  S
C1458      C2929   1.400       .  A
C1458      C1459   1.417       .  A
C1459      C1460   1.411       .  A
C1459      C1466   1.518       .  S
C1460      C1461   1.404       .  A
C1460      H1465   1.082       .  S
C1461      C2934   1.415       .  A
C1462      C2933   1.415   1_455  A
C1462      C1463   1.516       .  S
C1463      F1467   1.385       .  S
C1463      F2940   1.384       .  S
C1463      F1469   1.380       .  S
C1466      F1470   1.382       .  S
C1466      F2943   1.383       .  S
C1466      F1472   1.385       .  S
F1468      C2935   1.384       .  S
F1471      C2938   1.383       .  S
O1473      C1483   1.276       .  A
O1473     Cu2217   2.002       .  S
O1474      C1484   1.275       .  A
O1474     Cu1481   2.004       .  S
O1475      C1485   1.279       .  A
O1475     Cu1481   2.024   1_545  S
O1476      C1486   1.279       .  A
O1476     Cu2217   2.024       .  S
O1477     Cu1482   2.013       .  S
O1478     Cu2218   2.014   1_545  S
O1479     Cu2218   2.014       .  S
O1480     Cu1482   2.015       .  S
Cu1481     O2209   2.002   1_565  S
Cu1481     O2212   2.024       .  S
Cu1482     O2214   2.014       .  S
Cu1482     O2215   2.014       .  S
O1487     Cu1495   2.000       .  S
O1488     Cu1495   2.004       .  S
O1489     Cu1495   2.016       .  S
O1490     Cu1495   2.018       .  S
O1491      C1500   1.279   1_655  A
O1491     Cu1496   2.019       .  S
O1492      C1499   1.278       .  A
O1492     Cu1496   2.023       .  S
O1493      C1498   1.281   1_655  A
O1493     Cu1496   2.018       .  S
O1494      C1497   1.278       .  A
O1494     Cu1496   2.013       .  S
C1499      C1829   1.483       .  S
C1500      C1813   1.485       .  S
O1501      C1511   1.281       .  A
O1501     Cu1509   2.024       .  S
O1502      C1512   1.278       .  A
O1502     Cu1509   2.028   1_545  S
O1503      C1513   1.275       .  A
O1503     Cu1509   2.002   1_545  S
O1504      C1514   1.275       .  A
O1504     Cu2245   2.006       .  S
O1505      C1514   1.278       .  A
O1505     Cu2246   1.996       .  S
O1506      C1513   1.277       .  A
O1506     Cu1510   1.993   1_545  S
O1507      C1512   1.278       .  A
O1507     Cu1510   1.996   1_545  S
O1508      C1511   1.274       .  A
O1508     Cu1510   2.003       .  S
Cu1509     O2240   2.006       .  S
Cu1509    Cu1510   2.358       .  S
Cu1510     O2241   1.996       .  S
C1511      C1701   1.502       .  S
C1512      C1685   1.493       .  S
C1513      C1733   1.494       .  S
C1514      C1714   1.492       .  S
O1515      C1525   1.277       .  A
O1515     Cu1523   2.011       .  S
O1516      C1526   1.279       .  A
O1516     Cu1523   2.012       .  S
O1517      C1527   1.278       .  A
O1517     Cu1523   1.998       .  S
O1518      C1528   1.278       .  A
O1518     Cu1523   1.997       .  S
O1519      C1528   1.276       .  A
O1519     Cu1524   2.008       .  S
O1520      C1527   1.274       .  A
O1520     Cu1524   1.998       .  S
O1521      C1526   1.276       .  A
O1521     Cu1524   2.004       .  S
O1522      C1525   1.276       .  A
O1522     Cu1524   2.002       .  S
Cu1523    Cu1524   2.363       .  S
C1525      C1650   1.472       .  S
C1526      C1666   1.493       .  S
C1527      C1730   1.494       .  S
C1528      C1717   1.494       .  S
O1529      C2275   1.277       .  A
O1529     Cu1905   2.010       .  S
O1530      C2276   1.277       .  A
O1530     Cu1537   2.007   1_554  S
O1531      C2277   1.275       .  A
O1531     Cu1537   2.005       .  S
O1532      C2278   1.278       .  A
O1533      C1542   1.277   1_545  A
O1534      C1541   1.280   1_545  A
O1534     Cu1906   2.013       .  S
O1535      C1540   1.277   1_545  A
O1535     Cu1906   2.011   1_554  S
Cu1537     O1897   2.010       .  S
Cu1537    Cu2642   2.371       .  S
Cu1538     O1902   2.014       .  S
Cu1538     O1903   2.011       .  S
Cu1538    Cu2641   2.371   1_545  S
C1539      O2265   1.277       .  A
C1539      C1794   1.478       .  S
C1540      O2266   1.277       .  A
C1540      C1781   1.472       .  S
C1541      O2267   1.275       .  A
C1541      C1621   1.498   1_556  S
C1542      O2268   1.278       .  A
C1542      C1637   1.472       .  S
O1543      C1553   1.279       .  A
O1543     Cu1919   2.008   1_554  S
O1544      C1554   1.278       .  A
O1544     Cu1551   2.016       .  S
O1545      C1555   1.275       .  A
O1545     Cu1551   1.997       .  S
O1546      C1556   1.274       .  A
O1547      C1556   1.280       .  A
O1548      C1555   1.279       .  A
O1548     Cu1920   2.012       .  S
O1549      C1554   1.275       .  A
O1549     Cu1920   2.000       .  S
O1550      C1553   1.274       .  A
O1550     Cu1552   1.997       .  S
Cu1551     O1911   2.007       .  S
Cu1551    Cu1920   2.368       .  S
Cu1552     O1916   2.011       .  S
Cu1552     O1917   1.998   1_554  S
Cu1552    Cu1919   2.368   1_554  S
C1553      C1749   1.487       .  S
C1554      C1762   1.470       .  S
C1555      C1605   1.474       .  S
C1556      C1586   1.497       .  S
O1557      C1567   1.279       .  A
O1557     Cu1933   2.022       .  S
O1558      C1568   1.280       .  A
O1558     Cu1565   2.017       .  S
O1559      C1569   1.276       .  A
O1559     Cu1565   2.007       .  S
O1560      C1570   1.278       .  A
O1560     Cu1933   1.997       .  S
O1561      C2306   1.278       .  A
O1561     Cu1566   2.019       .  S
O1562      C2305   1.281   1_545  A
O1562     Cu1934   2.030       .  S
O1563      C2304   1.276       .  A
O1563     Cu1934   2.010       .  S
O1564      C2303   1.276   1_545  A
O1564     Cu1566   2.004       .  S
Cu1565     O1925   2.021   1_554  S
Cu1565     O1928   1.997       .  S
Cu1565    Cu2670   2.372       .  S
Cu1566     O1930   2.030       .  S
Cu1566     O1931   2.009       .  S
Cu1566    Cu2669   2.372   1_545  S
C1567      O2300   1.276       .  A
C1567      C1698   1.474       .  S
C1568      O2299   1.276       .  A
C1568      C2418   1.478       .  S
C1569      O2298   1.281       .  A
C1569      C1634   1.477       .  S
C1570      O2297   1.278       .  A
C1570      C1618   1.496       .  S
O1571      C1581   1.277       .  A
O1571     Cu1947   2.008       .  S
O1572      C1582   1.278       .  A
O1572     Cu1579   2.008       .  S
O1573      C1583   1.279       .  A
O1573     Cu1579   2.019   1_556  S
O1574      C1584   1.280       .  A
O1574     Cu1947   2.007       .  S
O1575      C1584   1.274       .  A
O1575     Cu1580   2.003       .  S
O1576      C1583   1.277       .  A
O1576     Cu1948   2.007   1_556  S
O1577      C1582   1.277       .  A
O1577     Cu1948   2.010       .  S
O1578      C1581   1.277       .  A
O1578     Cu1580   2.007       .  S
Cu1579     O1939   2.008   1_554  S
Cu1579     O1942   2.006       .  S
Cu1579    Cu1948   2.367       .  S
Cu1580     O1944   2.006       .  S
Cu1580     O1945   2.010       .  S
Cu1580    Cu1947   2.367       .  S
C1581      C1669   1.473       .  S
C1582      C1653   1.491       .  S
C1583      C1602   1.480       .  S
C1584      C1589   1.498       .  S
C1585      C1586   1.407   1_554  A
C1585      C1590   1.407       .  A
C1585      H1592   1.081       .  S
C1586      C1955   1.425       .  A
C1587      C1954   1.425       .  A
C1587      C1588   1.406       .  A
C1587      C1594   1.524       .  S
C1588      C1589   1.407       .  A
C1588      H1593   1.081       .  S
C1589      C1958   1.425       .  A
C1590      C1957   1.425   1_554  A
C1590      C1591   1.523       .  S
C1591      F1595   1.385       .  S
C1591      F1596   1.382       .  S
C1591      F1965   1.383   1_554  S
C1594      F1966   1.383       .  S
C1594      F1599   1.383       .  S
C1594      F1600   1.385       .  S
F1597      C1959   1.383       .  S
F1598      C1962   1.383   1_554  S
C1601      C1602   1.403   1_554  A
C1601      C1606   1.409       .  A
C1601      H1608   1.083       .  S
C1602      C1971   1.418       .  A
C1603      C1970   1.418       .  A
C1603      C1604   1.403       .  A
C1603      C1610   1.513       .  S
C1604      C1605   1.398       .  A
C1604      H1609   1.084       .  S
C1605      C1974   1.418       .  A
C1606      C1973   1.418       .  A
C1606      C1607   1.519       .  S
C1607      F1611   1.385       .  S
C1607      F1612   1.382       .  S
C1607      F1613   1.383       .  S
C1610      F1614   1.380       .  S
C1610      F1615   1.382       .  S
C1610      F1616   1.385       .  S
C1617      C1618   1.407       .  A
C1617      C1622   1.407       .  A
C1617      H1624   1.082       .  S
C1618      C2723   1.421       .  A
C1619      C2722   1.421       .  A
C1619      C1620   1.409       .  A
C1619      C1626   1.521       .  S
C1620      C1621   1.409   1_545  A
C1620      H1625   1.082       .  S
C1621      C2726   1.425   1_554  A
C1622      C2725   1.425       .  A
C1622      C1623   1.524       .  S
C1623      F1627   1.385       .  S
C1623      F1628   1.383       .  S
C1623      F1629   1.381       .  S
C1626      F1630   1.384       .  S
C1626      F1631   1.383   1_554  S
C1626      F1632   1.385       .  S
C1633      C2002   1.405       .  A
C1633      C1638   1.410       .  A
C1633      H1640   1.084       .  S
C1634      C2001   1.405   1_554  A
C1634      C2371   1.420       .  A
C1635      C2370   1.420       .  A
C1635      C1636   1.403       .  A
C1635      C1642   1.513       .  S
C1636      C2005   1.396   1_554  A
C1636      H1641   1.086       .  S
C1637      C2004   1.396       .  A
C1637      C2374   1.413   1_565  A
C1638      C2373   1.413       .  A
C1638      C1639   1.515       .  S
C1639      F2379   1.385       .  S
C1639      F2380   1.381       .  S
C1639      F1645   1.384       .  S
C1642      F1646   1.382   1_565  S
C1642      F2383   1.379       .  S
C1642      F2384   1.383       .  S
F1643      C2375   1.385       .  S
F1644      C2375   1.381       .  S
F1647      C2378   1.379       .  S
F1648      C2378   1.383       .  S
C1649      C1650   1.399       .  A
C1649      C1654   1.408       .  A
C1649      H1656   1.083       .  S
C1650      C1651   1.412       .  A
C1651      C1652   1.406       .  A
C1651      C1658   1.519       .  S
C1652      C1653   1.409       .  A
C1652      H1657   1.083       .  S
C1653      C1654   1.425       .  A
C1654      C1655   1.520       .  S
C1655      F1659   1.385       .  S
C1655      F1660   1.383       .  S
C1655      F1661   1.382       .  S
C1658      F1662   1.382       .  S
C1658      F1663   1.384       .  S
C1658      F1664   1.384       .  S
C1665      C1666   1.411       .  A
C1665      C1670   1.409       .  A
C1665      H1672   1.082       .  S
C1666      C1667   1.425       .  A
C1667      C1668   1.402       .  A
C1667      C1674   1.519       .  S
C1668      C1669   1.394       .  A
C1668      H1673   1.076       .  S
C1669      C1670   1.412       .  A
C1670      C1671   1.518       .  S
C1671      F1675   1.384       .  S
C1671      F1676   1.382       .  S
C1671      F1677   1.384       .  S
C1674      F1678   1.384       .  S
C1674      F1679   1.377       .  S
C1674      F1680   1.385       .  S
C1681      C2418   1.405       .  A
C1681      C1686   1.410       .  A
C1681      H1688   1.084       .  S
C1682      C2304   1.478       .  S
C1682      C2417   1.405   1_545  A
C1682      C1683   1.419       .  A
C1683      C1684   1.402       .  A
C1683      C1690   1.517       .  S
C1684      C1685   1.405       .  A
C1684      H1689   1.085       .  S
C1685      C2422   1.420   1_545  A
C1686      C2421   1.420       .  A
C1686      C1687   1.516       .  S
C1687      F1691   1.385       .  S
C1687      F1692   1.378       .  S
C1687      F2429   1.383       .  S
C1690      F2430   1.383       .  S
C1690      F1695   1.378       .  S
C1690      F1696   1.383       .  S
F1693      C2423   1.383   1_545  S
F1694      C2426   1.383       .  S
C1697      C1698   1.397       .  A
C1697      C1702   1.411       .  A
C1697      H1704   1.083       .  S
C1698      C2435   1.411       .  A
C1699      C2434   1.411   1_545  A
C1699      C1700   1.407       .  A
C1699      C1706   1.519       .  S
C1700      C1701   1.411   1_545  A
C1700      H1705   1.082       .  S
C1701      C2438   1.432       .  A
C1702      C2437   1.432       .  A
C1702      C1703   1.522       .  S
C1703      F1707   1.385       .  S
C1703      F1708   1.383       .  S
C1703      F2445   1.383       .  S
C1706      F2446   1.383   1_545  S
C1706      F1711   1.383       .  S
C1706      F1712   1.384       .  S
F1709      C2439   1.383   1_545  S
F1710      C2442   1.383       .  S
C1713      C1714   1.407       .  A
C1713      C1718   1.405       .  A
C1713      H1720   1.082       .  S
C1714      C1715   1.422       .  A
C1715      C1716   1.405       .  A
C1715      C1722   1.521       .  S
C1716      C1717   1.407       .  A
C1716      H1721   1.082       .  S
C1717      C1718   1.423       .  A
C1718      C1719   1.521       .  S
C1719      F1723   1.385       .  S
C1719      F1724   1.378       .  S
C1719      F1725   1.383       .  S
C1722      F1726   1.383       .  S
C1722      F1727   1.379       .  S
C1722      F1728   1.385       .  S
C1729      C1730   1.408       .  A
C1729      C1734   1.405       .  A
C1729      H1736   1.081       .  S
C1730      C1731   1.424       .  A
C1731      C1732   1.404       .  A
C1731      C1738   1.524       .  S
C1732      C1733   1.407       .  A
C1732      H1737   1.081       .  S
C1733      C1734   1.423       .  A
C1734      C1735   1.523       .  S
C1735      F1739   1.385       .  S
C1735      F1740   1.384       .  S
C1735      F1741   1.383       .  S
C1738      F1742   1.383       .  S
C1738      F1743   1.383       .  S
C1738      F1744   1.385       .  S
C1745      C1750   1.407       .  A
C1745      H1752   1.083       .  S
C1746      C1747   1.414       .  A
C1747      C1748   1.404       .  A
C1747      C1754   1.518       .  S
C1748      C1749   1.406       .  A
C1748      H1753   1.083       .  S
C1750      C1751   1.521       .  S
C1751      F1755   1.385       .  S
C1751      F1756   1.384       .  S
C1754      F1759   1.382       .  S
C1754      F1760   1.385       .  S
C1761      C1762   1.396       .  A
C1761      C1766   1.408       .  A
C1761      H1768   1.083       .  S
C1763      C1764   1.406       .  A
C1763      C1770   1.519       .  S
C1764      H1769   1.082       .  S
C1765      C1766   1.431       .  A
C1766      C1767   1.521       .  S
C1767      F1771   1.385       .  S
C1767      F1772   1.383       .  S
C1767      F1773   1.380       .  S
C1770      F1774   1.383       .  S
C1770      F1775   1.383       .  S
C1770      F1776   1.384       .  S
C1777      C2514   1.409   1_655  A
C1777      C1782   1.405       .  A
C1777      H1784   1.082       .  S
C1778      C2513   1.409   1_455  A
C1779      C1780   1.409       .  A
C1779      C1786   1.522       .  S
C1780      H1785   1.083       .  S
C1781      C2518   1.411       .  A
C1782      C2517   1.411       .  A
C1782      C1783   1.519       .  S
C1783      F1787   1.384       .  S
C1783      F1788   1.382       .  S
C1783      F2525   1.383       .  S
C1786      F2526   1.383   1_545  S
C1786      F1791   1.383       .  S
C1786      F1792   1.385       .  S
F1789      C2519   1.383   1_545  S
F1790      C2522   1.383       .  S
C1793      C1798   1.403       .  A
C1793      H1800   1.081       .  S
C1794      C2531   1.416       .  A
C1795      C2530   1.416       .  A
C1795      C1796   1.407       .  A
C1795      C1802   1.517       .  S
C1796      C1797   1.405       .  A
C1796      H1801   1.083       .  S
C1798      C1799   1.518       .  S
C1799      F1803   1.385       .  S
C1799      F1804   1.378       .  S
C1799      F1805   1.382       .  S
C1802      F1806   1.383       .  S
C1802      F1807   1.382       .  S
C1802      F1808   1.385       .  S
C1809      C1814   1.410       .  A
C1809      H1816   1.083       .  S
C1810      C1811   1.418   1_455  A
C1811      C1812   1.409       .  A
C1811      C1818   1.518       .  S
C1812      C1813   1.403   1_655  A
C1812      H1817   1.083       .  S
C1814      C1815   1.518       .  S
C1815      F1819   1.385       .  S
C1815      F1820   1.382       .  S
C1815      F1821   1.382       .  S
C1818      F1822   1.382       .  S
C1818      F1823   1.383       .  S
C1818      F1824   1.385       .  S
C1825      C1830   1.405       .  A
C1825      H1832   1.078       .  S
C1826      C1827   1.417       .  A
C1827      C1828   1.411       .  A
C1827      C1834   1.518       .  S
C1828      C1829   1.404       .  A
C1828      H1833   1.082       .  S
C1830      C1831   1.516       .  S
C1831      F1835   1.385       .  S
C1831      F1837   1.380       .  S
C1834      F1838   1.382       .  S
C1834      F1840   1.385       .  S
O1841      C1851   1.276       .  A
O1841     Cu2585   2.002       .  S
O1842      C1852   1.275       .  A
O1842     Cu1849   2.004       .  S
O1843      C1853   1.280       .  A
O1843     Cu1849   2.024   1_545  S
O1844      C1854   1.279       .  A
O1844     Cu2585   2.024       .  S
O1845     Cu1850   2.013       .  S
O1846     Cu2586   2.014   1_545  S
O1847     Cu2586   2.014       .  S
O1848     Cu1850   2.015       .  S
Cu1849     O2577   2.002   1_565  S
Cu1849     O2580   2.024       .  S
Cu1850     O2582   2.014       .  S
Cu1850     O2583   2.014       .  S
O1855     Cu1863   2.000       .  S
O1856     Cu1863   2.004       .  S
O1857     Cu1863   2.016       .  S
O1858     Cu1863   2.018       .  S
O1859      C1868   1.279   1_655  A
O1859     Cu1864   2.019       .  S
O1860      C1867   1.278       .  A
O1860     Cu1864   2.023       .  S
O1861      C1866   1.281   1_655  A
O1861     Cu1864   2.018       .  S
O1862      C1865   1.278       .  A
O1862     Cu1864   2.013       .  S
C1867      C2197   1.483       .  S
C1868      C2181   1.485       .  S
O1869      C1879   1.281       .  A
O1869     Cu1877   2.025       .  S
O1870      C1880   1.278       .  A
O1870     Cu1877   2.028   1_545  S
O1871      C1881   1.275       .  A
O1871     Cu1877   2.002   1_545  S
O1872      C1882   1.275       .  A
O1872     Cu2613   2.006       .  S
O1873      C1882   1.278       .  A
O1873     Cu2614   1.996       .  S
O1874      C1881   1.277       .  A
O1874     Cu1878   1.993   1_545  S
O1875      C1880   1.278       .  A
O1875     Cu1878   1.996   1_545  S
O1876      C1879   1.274       .  A
O1876     Cu1878   2.003       .  S
Cu1877     O2608   2.006       .  S
Cu1877    Cu1878   2.358       .  S
Cu1878     O2609   1.996       .  S
C1879      C2069   1.502       .  S
C1880      C2053   1.493       .  S
C1881      C2101   1.494       .  S
C1882      C2082   1.492       .  S
O1883      C1893   1.277       .  A
O1883     Cu1891   2.011       .  S
O1884      C1894   1.279       .  A
O1884     Cu1891   2.012       .  S
O1885      C1895   1.278       .  A
O1885     Cu1891   1.998       .  S
O1886      C1896   1.278       .  A
O1886     Cu1891   1.997       .  S
O1887      C1896   1.276       .  A
O1887     Cu1892   2.008       .  S
O1888      C1895   1.274       .  A
O1888     Cu1892   1.998       .  S
O1889      C1894   1.276       .  A
O1889     Cu1892   2.004       .  S
O1890      C1893   1.276       .  A
O1890     Cu1892   2.003       .  S
Cu1891    Cu1892   2.363       .  S
C1893      C2018   1.472       .  S
C1894      C2034   1.493       .  S
C1895      C2098   1.494       .  S
C1896      C2085   1.494       .  S
O1897      C2643   1.277       .  A
O1898      C2644   1.277       .  A
O1898     Cu1905   2.007       .  S
O1899      C2645   1.275       .  A
O1899     Cu1905   2.005       .  S
O1900      C2646   1.278       .  A
O1901      C1910   1.277   1_545  A
O1902      C1909   1.280   1_545  A
O1903      C1908   1.277   1_545  A
Cu1905    Cu2274   2.371       .  S
Cu1906    Cu2273   2.371   1_545  S
C1907      O2633   1.277       .  A
C1907      C2162   1.478       .  S
C1908      O2634   1.277       .  A
C1908      C2149   1.472       .  S
C1909      O2635   1.275       .  A
C1909      C1989   1.498       .  S
C1910      O2636   1.278       .  A
C1910      C2005   1.472       .  S
O1911      C1921   1.279       .  A
O1912      C1922   1.278       .  A
O1912     Cu1919   2.016       .  S
O1913      C1923   1.275       .  A
O1913     Cu1919   1.999   1_554  S
O1914      C1924   1.273       .  A
O1915      C1924   1.280       .  A
O1916      C1923   1.278       .  A
O1917      C1922   1.275       .  A
O1918      C1921   1.275       .  A
O1918     Cu1920   1.999       .  S
C1921      C2117   1.487       .  S
C1922      C2130   1.470       .  S
C1923      C1973   1.474       .  S
C1924      C1954   1.497       .  S
O1925      C1935   1.279       .  A
O1926      C1936   1.280       .  A
O1926     Cu1933   2.017       .  S
O1927      C1937   1.276       .  A
O1927     Cu1933   2.007       .  S
O1928      C1938   1.278       .  A
O1929      C2674   1.278       .  A
O1929     Cu1934   2.019       .  S
O1930      C2673   1.281   1_545  A
O1931      C2672   1.276       .  A
O1932      C2671   1.276   1_545  A
O1932     Cu1934   2.004   1_556  S
Cu1933    Cu2302   2.372       .  S
Cu1934    Cu2301   2.372   1_545  S
C1935      O2668   1.276       .  A
C1935      C2066   1.474       .  S
C1936      O2667   1.276       .  A
C1936      C2786   1.478       .  S
C1937      O2666   1.281       .  A
C1937      C2002   1.477       .  S
C1938      O2665   1.278       .  A
C1938      C1986   1.496       .  S
O1939      C1949   1.277       .  A
O1940      C1950   1.278       .  A
O1940     Cu1947   2.008       .  S
O1941      C1951   1.279       .  A
O1941     Cu1947   2.020       .  S
O1942      C1952   1.279       .  A
O1943      C1952   1.275       .  A
O1943     Cu1948   2.004       .  S
O1944      C1951   1.276       .  A
O1945      C1950   1.277       .  A
O1946      C1949   1.277       .  A
O1946     Cu1948   2.007   1_556  S
C1949      C2037   1.473       .  S
C1950      C2021   1.491       .  S
C1951      C1970   1.479       .  S
C1952      C1957   1.498   1_554  S
C1953      C1954   1.407       .  A
C1953      C1958   1.407       .  A
C1953      H1960   1.081       .  S
C1955      C1956   1.406       .  A
C1955      C1962   1.524       .  S
C1956      C1957   1.407       .  A
C1956      H1961   1.081       .  S
C1958      C1959   1.523       .  S
C1959      F1963   1.385       .  S
C1959      F1964   1.382       .  S
C1962      F1967   1.383       .  S
C1962      F1968   1.385       .  S
C1969      C1970   1.403       .  A
C1969      C1974   1.409       .  A
C1969      H1976   1.083       .  S
C1971      C1972   1.403       .  A
C1971      C1978   1.513       .  S
C1972      C1973   1.398   1_556  A
C1972      H1977   1.084       .  S
C1974      C1975   1.519       .  S
C1975      F1979   1.385       .  S
C1975      F1980   1.382       .  S
C1975      F1981   1.383       .  S
C1978      F1982   1.380       .  S
C1978      F1983   1.382       .  S
C1978      F1984   1.385       .  S
C1985      C1986   1.407   1_556  A
C1985      C1990   1.407       .  A
C1985      H1992   1.082       .  S
C1986      C2355   1.421       .  A
C1987      C2354   1.421       .  A
C1987      C1988   1.409       .  A
C1987      C1994   1.521       .  S
C1988      C1989   1.409   1_545  A
C1988      H1993   1.082       .  S
C1989      C2358   1.425       .  A
C1990      C2357   1.425   1_556  A
C1990      C1991   1.524       .  S
C1991      F1995   1.385       .  S
C1991      F1996   1.383   1_556  S
C1991      F1997   1.381       .  S
C1994      F1998   1.384       .  S
C1994      F1999   1.383       .  S
C1994      F2000   1.385       .  S
C2001      C2006   1.410       .  A
C2001      H2008   1.084       .  S
C2002      C2739   1.420       .  A
C2003      C2738   1.420       .  A
C2003      C2004   1.403       .  A
C2003      C2010   1.513       .  S
C2004      H2009   1.086       .  S
C2005      C2742   1.413   1_565  A
C2006      C2741   1.413       .  A
C2006      C2007   1.515       .  S
C2007      F2747   1.385       .  S
C2007      F2748   1.381       .  S
C2007      F2013   1.384       .  S
C2010      F2014   1.382   1_565  S
C2010      F2751   1.379       .  S
C2010      F2752   1.383       .  S
F2011      C2743   1.385       .  S
F2012      C2743   1.381       .  S
F2015      C2746   1.379       .  S
F2016      C2746   1.383       .  S
C2017      C2018   1.399       .  A
C2017      C2022   1.408       .  A
C2017      H2024   1.083       .  S
C2018      C2019   1.412       .  A
C2019      C2020   1.406       .  A
C2019      C2026   1.519       .  S
C2020      C2021   1.409       .  A
C2020      H2025   1.083       .  S
C2021      C2022   1.425       .  A
C2022      C2023   1.520       .  S
C2023      F2027   1.385       .  S
C2023      F2028   1.383       .  S
C2023      F2029   1.382       .  S
C2026      F2030   1.382       .  S
C2026      F2031   1.384       .  S
C2026      F2032   1.384       .  S
C2033      C2034   1.411       .  A
C2033      C2038   1.409       .  A
C2033      H2040   1.082       .  S
C2034      C2035   1.425       .  A
C2035      C2036   1.402       .  A
C2035      C2042   1.519       .  S
C2036      C2037   1.394       .  A
C2036      H2041   1.076       .  S
C2037      C2038   1.412       .  A
C2038      C2039   1.518       .  S
C2039      F2043   1.384       .  S
C2039      F2044   1.382       .  S
C2039      F2045   1.384       .  S
C2042      F2046   1.384       .  S
C2042      F2047   1.377       .  S
C2042      F2048   1.385       .  S
C2049      C2786   1.405       .  A
C2049      C2054   1.410       .  A
C2049      H2056   1.084       .  S
C2050      C2672   1.478       .  S
C2050      C2785   1.405   1_545  A
C2050      C2051   1.419       .  A
C2051      C2052   1.402       .  A
C2051      C2058   1.517       .  S
C2052      C2053   1.405       .  A
C2052      H2057   1.085       .  S
C2053      C2790   1.420   1_545  A
C2054      C2789   1.420       .  A
C2054      C2055   1.516       .  S
C2055      F2059   1.385       .  S
C2055      F2060   1.378       .  S
C2055      F2797   1.383       .  S
C2058      F2798   1.383       .  S
C2058      F2063   1.378       .  S
C2058      F2064   1.383       .  S
F2061      C2791   1.383   1_545  S
F2062      C2794   1.383       .  S
C2065      C2066   1.397       .  A
C2065      C2070   1.411       .  A
C2065      H2072   1.083       .  S
C2066      C2803   1.411       .  A
C2067      C2802   1.411   1_545  A
C2067      C2068   1.407       .  A
C2067      C2074   1.519       .  S
C2068      C2069   1.411   1_545  A
C2068      H2073   1.082       .  S
C2069      C2806   1.432       .  A
C2070      C2805   1.432       .  A
C2070      C2071   1.522       .  S
C2071      F2075   1.385       .  S
C2071      F2076   1.383       .  S
C2071      F2813   1.383       .  S
C2074      F2814   1.383   1_545  S
C2074      F2079   1.383       .  S
C2074      F2080   1.384       .  S
F2077      C2807   1.383   1_545  S
F2078      C2810   1.383       .  S
C2081      C2082   1.407       .  A
C2081      C2086   1.405       .  A
C2081      H2088   1.082       .  S
C2082      C2083   1.422       .  A
C2083      C2084   1.405       .  A
C2083      C2090   1.521       .  S
C2084      C2085   1.407       .  A
C2084      H2089   1.082       .  S
C2085      C2086   1.423       .  A
C2086      C2087   1.521       .  S
C2087      F2091   1.385       .  S
C2087      F2092   1.378       .  S
C2087      F2093   1.383       .  S
C2090      F2094   1.383       .  S
C2090      F2095   1.379       .  S
C2090      F2096   1.385       .  S
C2097      C2098   1.408       .  A
C2097      C2102   1.405       .  A
C2097      H2104   1.081       .  S
C2098      C2099   1.424       .  A
C2099      C2100   1.404       .  A
C2099      C2106   1.524       .  S
C2100      C2101   1.407       .  A
C2100      H2105   1.081       .  S
C2101      C2102   1.423       .  A
C2102      C2103   1.523       .  S
C2103      F2107   1.385       .  S
C2103      F2108   1.384       .  S
C2103      F2109   1.383       .  S
C2106      F2110   1.383       .  S
C2106      F2111   1.383       .  S
C2106      F2112   1.385       .  S
C2113      C2118   1.407       .  A
C2113      H2120   1.083       .  S
C2114      C2115   1.414       .  A
C2115      C2116   1.404       .  A
C2115      C2122   1.518       .  S
C2116      C2117   1.406       .  A
C2116      H2121   1.083       .  S
C2118      C2119   1.521       .  S
C2119      F2123   1.385       .  S
C2119      F2124   1.383       .  S
C2122      F2127   1.382       .  S
C2122      F2128   1.385       .  S
C2129      C2130   1.396       .  A
C2129      C2134   1.408       .  A
C2129      H2136   1.083       .  S
C2131      C2132   1.406       .  A
C2131      C2138   1.519       .  S
C2132      H2137   1.082       .  S
C2133      C2134   1.431       .  A
C2134      C2135   1.521       .  S
C2135      F2139   1.385       .  S
C2135      F2140   1.383       .  S
C2135      F2141   1.380       .  S
C2138      F2142   1.383       .  S
C2138      F2143   1.383       .  S
C2138      F2144   1.384       .  S
C2145      C2882   1.409   1_655  A
C2145      C2150   1.405       .  A
C2145      H2152   1.082       .  S
C2146      C2881   1.409   1_455  A
C2147      C2148   1.409       .  A
C2147      C2154   1.522       .  S
C2148      H2153   1.083       .  S
C2149      C2886   1.411       .  A
C2150      C2885   1.411       .  A
C2150      C2151   1.519       .  S
C2151      F2155   1.384       .  S
C2151      F2156   1.382       .  S
C2151      F2893   1.383       .  S
C2154      F2894   1.383   1_545  S
C2154      F2159   1.383       .  S
C2154      F2160   1.385       .  S
F2157      C2887   1.383   1_545  S
F2158      C2890   1.383       .  S
C2161      C2166   1.403       .  A
C2161      H2168   1.081       .  S
C2162      C2899   1.416       .  A
C2163      C2898   1.416       .  A
C2163      C2164   1.407       .  A
C2163      C2170   1.517       .  S
C2164      C2165   1.405       .  A
C2164      H2169   1.083       .  S
C2166      C2167   1.518       .  S
C2167      F2171   1.385       .  S
C2167      F2172   1.378       .  S
C2167      F2173   1.382       .  S
C2170      F2174   1.383       .  S
C2170      F2175   1.382       .  S
C2170      F2176   1.385       .  S
C2177      C2182   1.410       .  A
C2177      H2184   1.083       .  S
C2178      C2179   1.418   1_455  A
C2179      C2180   1.409       .  A
C2179      C2186   1.518       .  S
C2180      C2181   1.403   1_655  A
C2180      H2185   1.083       .  S
C2182      C2183   1.518       .  S
C2183      F2187   1.385       .  S
C2183      F2188   1.382       .  S
C2183      F2189   1.382       .  S
C2186      F2190   1.382       .  S
C2186      F2191   1.383       .  S
C2186      F2192   1.385       .  S
C2193      C2198   1.405       .  A
C2193      H2200   1.078       .  S
C2194      C2195   1.417       .  A
C2195      C2196   1.411       .  A
C2195      C2202   1.518       .  S
C2196      C2197   1.404       .  A
C2196      H2201   1.082       .  S
C2198      C2199   1.516       .  S
C2199      F2203   1.385       .  S
C2199      F2205   1.380       .  S
C2202      F2206   1.382       .  S
C2202      F2208   1.385       .  S
O2209      C2219   1.276       .  A
O2210      C2220   1.275       .  A
O2210     Cu2217   2.004       .  S
O2211      C2221   1.279       .  A
O2211     Cu2217   2.024       .  S
O2212      C2222   1.279       .  A
O2213     Cu2218   2.013       .  S
O2216     Cu2218   2.015       .  S
O2223     Cu2231   2.000       .  S
O2224     Cu2231   2.004       .  S
O2225     Cu2231   2.016       .  S
O2226     Cu2231   2.018       .  S
O2227      C2236   1.279   1_655  A
O2227     Cu2232   2.019       .  S
O2228      C2235   1.278       .  A
O2228     Cu2232   2.023       .  S
O2229      C2234   1.281   1_655  A
O2229     Cu2232   2.018       .  S
O2230      C2233   1.278       .  A
O2230     Cu2232   2.013       .  S
C2235      C2565   1.483       .  S
C2236      C2549   1.485       .  S
O2237      C2247   1.281       .  A
O2237     Cu2245   2.024       .  S
O2238      C2248   1.278       .  A
O2238     Cu2245   2.028       .  S
O2239      C2249   1.275       .  A
O2239     Cu2245   2.002       .  S
O2240      C2250   1.275       .  A
O2241      C2250   1.278       .  A
O2242      C2249   1.277       .  A
O2242     Cu2246   1.993       .  S
O2243      C2248   1.278       .  A
O2243     Cu2246   1.996       .  S
O2244      C2247   1.274       .  A
O2244     Cu2246   2.003       .  S
Cu2245    Cu2246   2.358       .  S
C2247      C2437   1.502       .  S
C2248      C2421   1.493       .  S
C2249      C2469   1.494       .  S
C2250      C2450   1.492       .  S
O2251      C2261   1.277       .  A
O2251     Cu2259   2.011       .  S
O2252      C2262   1.279       .  A
O2252     Cu2259   2.012       .  S
O2253      C2263   1.278       .  A
O2253     Cu2259   1.998       .  S
O2254      C2264   1.278       .  A
O2254     Cu2259   1.997       .  S
O2255      C2264   1.276       .  A
O2255     Cu2260   2.008       .  S
O2256      C2263   1.274       .  A
O2256     Cu2260   1.998       .  S
O2257      C2262   1.276       .  A
O2257     Cu2260   2.004       .  S
O2258      C2261   1.276       .  A
O2258     Cu2260   2.002       .  S
Cu2259    Cu2260   2.363       .  S
C2261      C2386   1.472       .  S
C2262      C2402   1.493       .  S
C2263      C2466   1.494       .  S
C2264      C2453   1.494       .  S
O2265     Cu2641   2.010       .  S
O2266     Cu2273   2.007   1_554  S
O2267     Cu2273   2.005       .  S
O2269      C2278   1.277       .  A
O2270      C2277   1.280       .  A
O2270     Cu2642   2.013       .  S
O2271      C2276   1.277       .  A
O2271     Cu2642   2.011   1_554  S
Cu2273     O2633   2.010       .  S
Cu2274     O2638   2.014       .  S
Cu2274     O2639   2.011       .  S
C2275      C2530   1.478       .  S
C2276      C2517   1.472       .  S
C2277      C2357   1.498   1_556  S
C2278      C2373   1.472       .  S
O2279      C2289   1.279       .  A
O2279     Cu2655   2.008   1_554  S
O2280      C2290   1.278       .  A
O2280     Cu2287   2.016       .  S
O2281      C2291   1.275       .  A
O2281     Cu2287   1.997       .  S
O2282      C2292   1.274       .  A
O2283      C2292   1.280       .  A
O2284      C2291   1.279       .  A
O2284     Cu2656   2.012       .  S
O2285      C2290   1.275       .  A
O2285     Cu2656   2.000       .  S
O2286      C2289   1.274       .  A
O2286     Cu2288   1.997       .  S
Cu2287     O2647   2.007       .  S
Cu2287    Cu2656   2.368       .  S
Cu2288     O2652   2.011       .  S
Cu2288     O2653   1.998   1_554  S
Cu2288    Cu2655   2.368   1_554  S
C2289      C2485   1.487       .  S
C2290      C2498   1.470       .  S
C2291      C2341   1.474       .  S
C2292      C2322   1.497       .  S
O2293      C2303   1.279       .  A
O2293     Cu2669   2.022       .  S
O2294      C2304   1.280   1_565  A
O2294     Cu2301   2.017       .  S
O2295      C2305   1.276       .  A
O2295     Cu2301   2.007       .  S
O2296      C2306   1.278   1_565  A
O2296     Cu2669   1.997       .  S
O2297     Cu2302   2.019       .  S
O2298     Cu2670   2.030       .  S
O2299     Cu2670   2.010       .  S
O2300     Cu2302   2.004       .  S
Cu2301     O2661   2.021   1_554  S
Cu2301     O2664   1.997       .  S
Cu2302     O2666   2.030       .  S
Cu2302     O2667   2.009       .  S
C2303      C2434   1.474       .  S
C2305      C2370   1.477       .  S
C2306      C2354   1.496       .  S
O2307      C2317   1.277       .  A
O2307     Cu2683   2.008       .  S
O2308      C2318   1.278       .  A
O2308     Cu2315   2.008       .  S
O2309      C2319   1.279       .  A
O2309     Cu2315   2.019   1_556  S
O2310      C2320   1.280       .  A
O2310     Cu2683   2.007       .  S
O2311      C2320   1.274       .  A
O2311     Cu2316   2.003       .  S
O2312      C2319   1.277       .  A
O2312     Cu2684   2.007   1_556  S
O2313      C2318   1.277       .  A
O2313     Cu2684   2.010       .  S
O2314      C2317   1.277       .  A
O2314     Cu2316   2.007       .  S
Cu2315     O2675   2.008   1_554  S
Cu2315     O2678   2.006       .  S
Cu2315    Cu2684   2.367       .  S
Cu2316     O2680   2.006       .  S
Cu2316     O2681   2.010       .  S
Cu2316    Cu2683   2.367       .  S
C2317      C2405   1.473       .  S
C2318      C2389   1.491       .  S
C2319      C2338   1.480       .  S
C2320      C2325   1.498       .  S
C2321      C2322   1.407   1_554  A
C2321      C2326   1.407       .  A
C2321      H2328   1.081       .  S
C2322      C2691   1.425       .  A
C2323      C2690   1.425       .  A
C2323      C2324   1.406       .  A
C2323      C2330   1.524       .  S
C2324      C2325   1.407       .  A
C2324      H2329   1.081       .  S
C2325      C2694   1.425       .  A
C2326      C2693   1.425   1_554  A
C2326      C2327   1.523       .  S
C2327      F2331   1.385       .  S
C2327      F2332   1.382       .  S
C2327      F2701   1.383   1_554  S
C2330      F2702   1.383       .  S
C2330      F2335   1.383       .  S
C2330      F2336   1.385       .  S
F2333      C2695   1.383       .  S
F2334      C2698   1.383   1_554  S
C2337      C2338   1.403   1_554  A
C2337      C2342   1.409       .  A
C2337      H2344   1.083       .  S
C2338      C2707   1.418       .  A
C2339      C2706   1.418       .  A
C2339      C2340   1.403       .  A
C2339      C2346   1.513       .  S
C2340      C2341   1.398       .  A
C2340      H2345   1.084       .  S
C2341      C2710   1.418       .  A
C2342      C2709   1.418       .  A
C2342      C2343   1.519       .  S
C2343      F2347   1.385       .  S
C2343      F2348   1.382       .  S
C2343      F2349   1.383       .  S
C2346      F2350   1.380       .  S
C2346      F2351   1.382       .  S
C2346      F2352   1.385       .  S
C2353      C2354   1.407   1_565  A
C2353      C2358   1.407       .  A
C2353      H2360   1.082       .  S
C2355      C2356   1.409       .  A
C2355      C2362   1.521       .  S
C2356      C2357   1.409       .  A
C2356      H2361   1.082       .  S
C2358      C2359   1.524       .  S
C2359      F2363   1.385       .  S
C2359      F2364   1.383       .  S
C2359      F2365   1.381       .  S
C2362      F2366   1.384       .  S
C2362      F2367   1.383   1_554  S
C2362      F2368   1.385       .  S
C2369      C2738   1.405   1_545  A
C2369      C2374   1.410       .  A
C2369      H2376   1.084       .  S
C2370      C2737   1.405   1_564  A
C2371      C2372   1.403       .  A
C2371      C2378   1.513       .  S
C2372      C2741   1.396   1_554  A
C2372      H2377   1.086       .  S
C2373      C2740   1.396       .  A
C2374      C2375   1.515       .  S
C2375      F2381   1.384   1_545  S
C2378      F2382   1.382       .  S
C2385      C2386   1.399       .  A
C2385      C2390   1.408       .  A
C2385      H2392   1.083       .  S
C2386      C2387   1.412       .  A
C2387      C2388   1.406       .  A
C2387      C2394   1.519       .  S
C2388      C2389   1.409       .  A
C2388      H2393   1.083       .  S
C2389      C2390   1.425       .  A
C2390      C2391   1.520       .  S
C2391      F2395   1.385       .  S
C2391      F2396   1.383       .  S
C2391      F2397   1.382       .  S
C2394      F2398   1.382       .  S
C2394      F2399   1.384       .  S
C2394      F2400   1.384       .  S
C2401      C2402   1.411       .  A
C2401      C2406   1.409       .  A
C2401      H2408   1.082       .  S
C2402      C2403   1.425       .  A
C2403      C2404   1.402       .  A
C2403      C2410   1.519       .  S
C2404      C2405   1.394       .  A
C2404      H2409   1.076       .  S
C2405      C2406   1.412       .  A
C2406      C2407   1.518       .  S
C2407      F2411   1.384       .  S
C2407      F2412   1.382       .  S
C2407      F2413   1.384       .  S
C2410      F2414   1.384       .  S
C2410      F2415   1.377       .  S
C2410      F2416   1.385       .  S
C2417      C2422   1.410       .  A
C2417      H2424   1.084       .  S
C2418      C2419   1.419       .  A
C2419      C2420   1.402       .  A
C2419      C2426   1.517       .  S
C2420      C2421   1.405       .  A
C2420      H2425   1.085       .  S
C2422      C2423   1.516       .  S
C2423      F2427   1.385       .  S
C2423      F2428   1.378       .  S
C2426      F2431   1.378       .  S
C2426      F2432   1.383       .  S
C2433      C2434   1.397       .  A
C2433      C2438   1.411       .  A
C2433      H2440   1.083       .  S
C2435      C2436   1.407       .  A
C2435      C2442   1.519       .  S
C2436      C2437   1.411       .  A
C2436      H2441   1.082       .  S
C2438      C2439   1.522       .  S
C2439      F2443   1.385       .  S
C2439      F2444   1.383       .  S
C2442      F2447   1.383       .  S
C2442      F2448   1.384       .  S
C2449      C2450   1.407       .  A
C2449      C2454   1.405       .  A
C2449      H2456   1.082       .  S
C2450      C2451   1.422       .  A
C2451      C2452   1.405       .  A
C2451      C2458   1.521       .  S
C2452      C2453   1.407       .  A
C2452      H2457   1.082       .  S
C2453      C2454   1.423       .  A
C2454      C2455   1.521       .  S
C2455      F2459   1.385       .  S
C2455      F2460   1.378       .  S
C2455      F2461   1.383       .  S
C2458      F2462   1.383       .  S
C2458      F2463   1.379       .  S
C2458      F2464   1.385       .  S
C2465      C2466   1.408       .  A
C2465      C2470   1.405       .  A
C2465      H2472   1.081       .  S
C2466      C2467   1.424       .  A
C2467      C2468   1.404       .  A
C2467      C2474   1.524       .  S
C2468      C2469   1.407       .  A
C2468      H2473   1.081       .  S
C2469      C2470   1.423       .  A
C2470      C2471   1.523       .  S
C2471      F2475   1.385       .  S
C2471      F2476   1.384       .  S
C2471      F2477   1.383       .  S
C2474      F2478   1.383       .  S
C2474      F2479   1.383       .  S
C2474      F2480   1.385       .  S
C2481      C2486   1.407       .  A
C2481      H2488   1.083       .  S
C2482      C2483   1.414       .  A
C2483      C2484   1.404       .  A
C2483      C2490   1.518       .  S
C2484      C2485   1.406       .  A
C2484      H2489   1.083       .  S
C2486      C2487   1.521       .  S
C2487      F2491   1.385       .  S
C2487      F2492   1.384       .  S
C2490      F2495   1.382       .  S
C2490      F2496   1.385       .  S
C2497      C2498   1.396       .  A
C2497      C2502   1.408       .  A
C2497      H2504   1.083       .  S
C2499      C2500   1.406       .  A
C2499      C2506   1.519       .  S
C2500      H2505   1.082       .  S
C2501      C2502   1.431       .  A
C2502      C2503   1.521       .  S
C2503      F2507   1.385       .  S
C2503      F2508   1.383       .  S
C2503      F2509   1.380       .  S
C2506      F2510   1.383       .  S
C2506      F2511   1.383       .  S
C2506      F2512   1.384       .  S
C2513      C2518   1.405       .  A
C2513      H2520   1.082       .  S
C2515      C2516   1.409       .  A
C2515      C2522   1.522       .  S
C2516      H2521   1.083       .  S
C2518      C2519   1.519       .  S
C2519      F2523   1.384       .  S
C2519      F2524   1.382       .  S
C2522      F2527   1.383       .  S
C2522      F2528   1.385       .  S
C2529      C2534   1.403       .  A
C2529      H2536   1.081       .  S
C2531      C2532   1.407       .  A
C2531      C2538   1.517       .  S
C2532      C2533   1.405       .  A
C2532      H2537   1.083       .  S
C2534      C2535   1.518       .  S
C2535      F2539   1.385       .  S
C2535      F2540   1.378       .  S
C2535      F2541   1.382       .  S
C2538      F2542   1.383       .  S
C2538      F2543   1.382       .  S
C2538      F2544   1.385       .  S
C2545      C2550   1.410       .  A
C2545      H2552   1.083       .  S
C2546      C2547   1.418   1_455  A
C2547      C2548   1.409       .  A
C2547      C2554   1.518       .  S
C2548      C2549   1.403   1_655  A
C2548      H2553   1.083       .  S
C2550      C2551   1.518       .  S
C2551      F2555   1.385       .  S
C2551      F2556   1.382       .  S
C2551      F2557   1.382       .  S
C2554      F2558   1.382       .  S
C2554      F2559   1.383       .  S
C2554      F2560   1.385       .  S
C2561      C2566   1.405       .  A
C2561      H2568   1.078       .  S
C2562      C2563   1.417       .  A
C2563      C2564   1.411       .  A
C2563      C2570   1.518       .  S
C2564      C2565   1.404       .  A
C2564      H2569   1.082       .  S
C2566      C2567   1.516       .  S
C2567      F2571   1.385       .  S
C2567      F2573   1.380       .  S
C2570      F2574   1.382       .  S
C2570      F2576   1.385       .  S
O2577      C2587   1.276       .  A
O2578      C2588   1.275       .  A
O2578     Cu2585   2.004       .  S
O2579      C2589   1.280       .  A
O2579     Cu2585   2.024       .  S
O2580      C2590   1.279       .  A
O2581     Cu2586   2.013       .  S
O2584     Cu2586   2.015       .  S
O2591     Cu2599   2.000       .  S
O2592     Cu2599   2.004       .  S
O2593     Cu2599   2.016       .  S
O2594     Cu2599   2.018       .  S
O2595      C2604   1.279   1_655  A
O2595     Cu2600   2.019       .  S
O2596      C2603   1.278       .  A
O2596     Cu2600   2.023       .  S
O2597      C2602   1.281   1_655  A
O2597     Cu2600   2.018       .  S
O2598      C2601   1.278       .  A
O2598     Cu2600   2.013       .  S
C2603      C2933   1.483       .  S
C2604      C2917   1.485       .  S
O2605      C2615   1.281       .  A
O2605     Cu2613   2.025       .  S
O2606      C2616   1.278       .  A
O2606     Cu2613   2.028       .  S
O2607      C2617   1.275       .  A
O2607     Cu2613   2.002       .  S
O2608      C2618   1.275       .  A
O2609      C2618   1.278       .  A
O2610      C2617   1.277       .  A
O2610     Cu2614   1.993       .  S
O2611      C2616   1.278       .  A
O2611     Cu2614   1.996       .  S
O2612      C2615   1.274       .  A
O2612     Cu2614   2.003       .  S
Cu2613    Cu2614   2.358       .  S
C2615      C2805   1.502       .  S
C2616      C2789   1.493       .  S
C2617      C2837   1.494       .  S
C2618      C2818   1.492       .  S
O2619      C2629   1.277       .  A
O2619     Cu2627   2.011       .  S
O2620      C2630   1.279       .  A
O2620     Cu2627   2.012       .  S
O2621      C2631   1.278       .  A
O2621     Cu2627   1.998       .  S
O2622      C2632   1.278       .  A
O2622     Cu2627   1.997       .  S
O2623      C2632   1.276       .  A
O2623     Cu2628   2.008       .  S
O2624      C2631   1.274       .  A
O2624     Cu2628   1.998       .  S
O2625      C2630   1.276       .  A
O2625     Cu2628   2.004       .  S
O2626      C2629   1.276       .  A
O2626     Cu2628   2.003       .  S
Cu2627    Cu2628   2.363       .  S
C2629      C2754   1.472       .  S
C2630      C2770   1.493       .  S
C2631      C2834   1.494       .  S
C2632      C2821   1.494       .  S
O2634     Cu2641   2.007       .  S
O2635     Cu2641   2.005       .  S
O2637      C2646   1.277       .  A
O2638      C2645   1.280       .  A
O2639      C2644   1.277       .  A
C2643      C2898   1.478       .  S
C2644      C2885   1.472       .  S
C2645      C2725   1.498       .  S
C2646      C2741   1.472       .  S
O2647      C2657   1.279       .  A
O2648      C2658   1.278       .  A
O2648     Cu2655   2.016       .  S
O2649      C2659   1.275       .  A
O2649     Cu2655   1.999   1_554  S
O2650      C2660   1.273       .  A
O2651      C2660   1.280       .  A
O2652      C2659   1.278       .  A
O2653      C2658   1.275       .  A
O2654      C2657   1.275       .  A
O2654     Cu2656   1.999       .  S
C2657      C2853   1.487       .  S
C2658      C2866   1.470       .  S
C2659      C2709   1.474       .  S
C2660      C2690   1.497       .  S
O2661      C2671   1.279       .  A
O2662      C2672   1.280   1_565  A
O2662     Cu2669   2.017       .  S
O2663      C2673   1.276       .  A
O2663     Cu2669   2.007       .  S
O2664      C2674   1.278   1_565  A
O2665     Cu2670   2.019       .  S
O2668     Cu2670   2.004   1_556  S
C2671      C2802   1.474       .  S
C2673      C2738   1.477       .  S
C2674      C2722   1.496       .  S
O2675      C2685   1.277       .  A
O2676      C2686   1.278       .  A
O2676     Cu2683   2.008       .  S
O2677      C2687   1.279       .  A
O2677     Cu2683   2.020       .  S
O2678      C2688   1.279       .  A
O2679      C2688   1.275       .  A
O2679     Cu2684   2.004       .  S
O2680      C2687   1.276       .  A
O2681      C2686   1.277       .  A
O2682      C2685   1.277       .  A
O2682     Cu2684   2.007   1_556  S
C2685      C2773   1.473       .  S
C2686      C2757   1.491       .  S
C2687      C2706   1.479       .  S
C2688      C2693   1.498   1_554  S
C2689      C2690   1.407       .  A
C2689      C2694   1.407       .  A
C2689      H2696   1.081       .  S
C2691      C2692   1.406       .  A
C2691      C2698   1.524       .  S
C2692      C2693   1.407       .  A
C2692      H2697   1.081       .  S
C2694      C2695   1.523       .  S
C2695      F2699   1.385       .  S
C2695      F2700   1.382       .  S
C2698      F2703   1.383       .  S
C2698      F2704   1.385       .  S
C2705      C2706   1.403       .  A
C2705      C2710   1.409       .  A
C2705      H2712   1.083       .  S
C2707      C2708   1.403       .  A
C2707      C2714   1.513       .  S
C2708      C2709   1.398   1_556  A
C2708      H2713   1.084       .  S
C2710      C2711   1.519       .  S
C2711      F2715   1.385       .  S
C2711      F2716   1.382       .  S
C2711      F2717   1.383       .  S
C2714      F2718   1.380       .  S
C2714      F2719   1.382       .  S
C2714      F2720   1.385       .  S
C2721      C2722   1.407   1_566  A
C2721      C2726   1.407       .  A
C2721      H2728   1.082       .  S
C2723      C2724   1.409       .  A
C2723      C2730   1.521       .  S
C2724      C2725   1.409       .  A
C2724      H2729   1.082       .  S
C2726      C2727   1.524       .  S
C2727      F2731   1.385       .  S
C2727      F2732   1.383   1_556  S
C2727      F2733   1.381       .  S
C2730      F2734   1.384       .  S
C2730      F2735   1.383       .  S
C2730      F2736   1.385       .  S
C2737      C2742   1.410       .  A
C2737      H2744   1.084       .  S
C2739      C2740   1.403       .  A
C2739      C2746   1.513       .  S
C2740      H2745   1.086       .  S
C2742      C2743   1.515       .  S
C2743      F2749   1.384   1_545  S
C2746      F2750   1.382       .  S
C2753      C2754   1.399       .  A
C2753      C2758   1.408       .  A
C2753      H2760   1.083       .  S
C2754      C2755   1.412       .  A
C2755      C2756   1.406       .  A
C2755      C2762   1.519       .  S
C2756      C2757   1.409       .  A
C2756      H2761   1.083       .  S
C2757      C2758   1.425       .  A
C2758      C2759   1.520       .  S
C2759      F2763   1.385       .  S
C2759      F2764   1.383       .  S
C2759      F2765   1.382       .  S
C2762      F2766   1.382       .  S
C2762      F2767   1.384       .  S
C2762      F2768   1.384       .  S
C2769      C2770   1.411       .  A
C2769      C2774   1.409       .  A
C2769      H2776   1.082       .  S
C2770      C2771   1.425       .  A
C2771      C2772   1.402       .  A
C2771      C2778   1.519       .  S
C2772      C2773   1.394       .  A
C2772      H2777   1.076       .  S
C2773      C2774   1.412       .  A
C2774      C2775   1.518       .  S
C2775      F2779   1.384       .  S
C2775      F2780   1.382       .  S
C2775      F2781   1.384       .  S
C2778      F2782   1.384       .  S
C2778      F2783   1.377       .  S
C2778      F2784   1.385       .  S
C2785      C2790   1.410       .  A
C2785      H2792   1.084       .  S
C2786      C2787   1.419       .  A
C2787      C2788   1.402       .  A
C2787      C2794   1.517       .  S
C2788      C2789   1.405       .  A
C2788      H2793   1.085       .  S
C2790      C2791   1.516       .  S
C2791      F2795   1.385       .  S
C2791      F2796   1.378       .  S
C2794      F2799   1.378       .  S
C2794      F2800   1.383       .  S
C2801      C2802   1.397       .  A
C2801      C2806   1.411       .  A
C2801      H2808   1.083       .  S
C2803      C2804   1.407       .  A
C2803      C2810   1.519       .  S
C2804      C2805   1.411       .  A
C2804      H2809   1.082       .  S
C2806      C2807   1.522       .  S
C2807      F2811   1.385       .  S
C2807      F2812   1.383       .  S
C2810      F2815   1.383       .  S
C2810      F2816   1.384       .  S
C2817      C2818   1.407       .  A
C2817      C2822   1.405       .  A
C2817      H2824   1.082       .  S
C2818      C2819   1.422       .  A
C2819      C2820   1.405       .  A
C2819      C2826   1.521       .  S
C2820      C2821   1.407       .  A
C2820      H2825   1.082       .  S
C2821      C2822   1.423       .  A
C2822      C2823   1.521       .  S
C2823      F2827   1.385       .  S
C2823      F2828   1.378       .  S
C2823      F2829   1.383       .  S
C2826      F2830   1.383       .  S
C2826      F2831   1.379       .  S
C2826      F2832   1.385       .  S
C2833      C2834   1.408       .  A
C2833      C2838   1.405       .  A
C2833      H2840   1.081       .  S
C2834      C2835   1.424       .  A
C2835      C2836   1.404       .  A
C2835      C2842   1.524       .  S
C2836      C2837   1.407       .  A
C2836      H2841   1.081       .  S
C2837      C2838   1.423       .  A
C2838      C2839   1.523       .  S
C2839      F2843   1.385       .  S
C2839      F2844   1.384       .  S
C2839      F2845   1.383       .  S
C2842      F2846   1.383       .  S
C2842      F2847   1.383       .  S
C2842      F2848   1.385       .  S
C2849      C2854   1.407       .  A
C2849      H2856   1.083       .  S
C2850      C2851   1.414       .  A
C2851      C2852   1.404       .  A
C2851      C2858   1.518       .  S
C2852      C2853   1.406       .  A
C2852      H2857   1.083       .  S
C2854      C2855   1.521       .  S
C2855      F2859   1.385       .  S
C2855      F2860   1.383       .  S
C2858      F2863   1.382       .  S
C2858      F2864   1.385       .  S
C2865      C2866   1.396       .  A
C2865      C2870   1.408       .  A
C2865      H2872   1.083       .  S
C2867      C2868   1.406       .  A
C2867      C2874   1.519       .  S
C2868      H2873   1.082       .  S
C2869      C2870   1.431       .  A
C2870      C2871   1.521       .  S
C2871      F2875   1.385       .  S
C2871      F2876   1.383       .  S
C2871      F2877   1.380       .  S
C2874      F2878   1.383       .  S
C2874      F2879   1.383       .  S
C2874      F2880   1.384       .  S
C2881      C2886   1.405       .  A
C2881      H2888   1.082       .  S
C2883      C2884   1.409       .  A
C2883      C2890   1.522       .  S
C2884      H2889   1.083       .  S
C2886      C2887   1.519       .  S
C2887      F2891   1.384       .  S
C2887      F2892   1.382       .  S
C2890      F2895   1.383       .  S
C2890      F2896   1.385       .  S
C2897      C2902   1.403       .  A
C2897      H2904   1.081       .  S
C2899      C2900   1.407       .  A
C2899      C2906   1.517       .  S
C2900      C2901   1.405       .  A
C2900      H2905   1.083       .  S
C2902      C2903   1.518       .  S
C2903      F2907   1.385       .  S
C2903      F2908   1.378       .  S
C2903      F2909   1.382       .  S
C2906      F2910   1.383       .  S
C2906      F2911   1.382       .  S
C2906      F2912   1.385       .  S
C2913      C2918   1.410       .  A
C2913      H2920   1.083       .  S
C2914      C2915   1.418   1_455  A
C2915      C2916   1.409       .  A
C2915      C2922   1.518       .  S
C2916      C2917   1.403   1_655  A
C2916      H2921   1.083       .  S
C2918      C2919   1.518       .  S
C2919      F2923   1.385       .  S
C2919      F2924   1.382       .  S
C2919      F2925   1.382       .  S
C2922      F2926   1.382       .  S
C2922      F2927   1.383       .  S
C2922      F2928   1.385       .  S
C2929      C2934   1.405       .  A
C2929      H2936   1.078       .  S
C2930      C2931   1.417       .  A
C2931      C2932   1.411       .  A
C2931      C2938   1.518       .  S
C2932      C2933   1.404       .  A
C2932      H2937   1.082       .  S
C2934      C2935   1.516       .  S
C2935      F2939   1.385       .  S
C2935      F2941   1.380       .  S
C2938      F2942   1.382       .  S
C2938      F2944   1.385       .  S
