geometry optimzed in LAMMPS
_audit_creation_date              2020-11-30 
_audit_creation_method            'lammps2cif' 
_symmetry_space_group_name_H-M    'P1' 
_symmetry_Int_Tables_number       1 
_symmetry_cell_setting            triclinic 
loop_ 
_symmetry_equiv_pos_as_xyz 
  x,y,z 
_cell_length_a                    35.98080891 
_cell_length_b                    37.74905353124877 
_cell_length_c                    27.3201574740806 
_cell_angle_alpha                 72.68145446466745 
_cell_angle_beta                  90.03488353530665 
_cell_angle_gamma                 119.88002356184981 
loop_ 
_atom_site_label 
_atom_site_type_symbol 
_atom_site_fract_x 
_atom_site_fract_y 
_atom_site_fract_z 
_atom_site_charge 
N1          N  0.28121251  0.35021116  0.48178587    -0.02700
C2          C  0.23897066  0.31900441  0.48584622    -0.00100
C3          C  0.23741001  0.27567603  0.04571388    -0.23000
C4          C  0.26379712  0.30199314  0.07172997    -0.23200
C5          C  0.29877505  0.33738724  0.03491134    -0.00200
H6          H  0.20645285  0.24554904  0.06241167     0.13500
H7          H  0.25790907  0.29627731  0.11298076     0.13600
N8          N  0.68945675  0.71902082  0.38378983    -0.02700
C9          C  0.73163695  0.75116355  0.37742888    -0.00100
C10         C  0.75305084  0.76422296  0.32759175    -0.23000
C11         C  0.72304194  0.73965266  0.30224507    -0.23200
C12         C  0.68439268  0.71239675  0.33743255    -0.00200
H13         H  0.78649211  0.78992250  0.31089295     0.13500
H14         H  0.72871255  0.74145522  0.26243813     0.13600
N15         N  0.48568732  0.52601569  0.26251998    -0.35900
N16         N  0.54637757  0.58601437  0.16540863    -0.56400
N17         N  0.49511186  0.52445899  0.11266681    -0.35900
N18         N  0.43192084  0.46756194  0.20824290    -0.56400
C19         C  0.51046244  0.56118448  0.27661131     0.27700
C20         C  0.44894549  0.49904614  0.29885485     0.27700
C21         C  0.52308657  0.55979655  0.07153184     0.27700
C22         C  0.46146206  0.49785675  0.09388695     0.27700
C23         C  0.56948435  0.60537386  0.19855232     0.36300
C24         C  0.57436440  0.60447568  0.11995238     0.36300
C25         C  0.41011625  0.44256428  0.25748949     0.36300
C26         C  0.41476608  0.44209019  0.17871387     0.36300
C27         C  0.48960276  0.55628209  0.32290560    -0.21100
C28         C  0.45065833  0.51713230  0.33686101    -0.21100
C29         C  0.50753588  0.55526738  0.02594806    -0.21100
C30         C  0.46852719  0.51626528  0.04007470    -0.21100
C31         C  0.61201276  0.63670667  0.17373666    -0.22200
C32         C  0.61513470  0.63606302  0.12404364    -0.22200
C33         C  0.37910803  0.40093005  0.25932914    -0.22200
C34         C  0.38205878  0.40063011  0.20942868    -0.22200
C35         C  0.55247823  0.59631699  0.25041392    -0.17500
C36         C  0.41477516  0.45777776  0.29984546    -0.17500
C37         C  0.42516450  0.45689896  0.12374429    -0.17500
C38         C  0.56320884  0.59514395  0.07376350    -0.17500
H39         H  0.50128790  0.57856149  0.34443487     0.15400
H40         H  0.42653300  0.50341517  0.37134166     0.15400
H41         H  0.52262650  0.57783192  0.98657639     0.15400
H42         H  0.44777740  0.50302778  0.01362982     0.15400
H43         H  0.63813139  0.65785588  0.18973466     0.13700
H44         H  0.64414448  0.65664632  0.09427033     0.13600
H45         H  0.35603204  0.37387789  0.29290345     0.13700
H46         H  0.36171966  0.37330756  0.19697797     0.13600
H47         H  0.49544823  0.51868282  0.23304559     0.26900
H48         H  0.50095659  0.51713224  0.15055493     0.26900
N49         N  0.63519250  0.00296758  0.32334389    -0.02700
C50         C  0.66528381  0.99159498  0.33565499    -0.00100
C51         C  0.67271044  0.97572656  0.29958768    -0.23000
C52         C  0.64614959  0.97673291  0.26412953    -0.23200
C53         C  0.62344870  0.99325526  0.27967934    -0.00200
H54         H  0.69642969  0.96623820  0.29805423     0.13500
H55         H  0.64495381  0.96825588  0.22939705     0.13600
N56         N  0.30076704  0.07659461  0.29408571    -0.02700
C57         C  0.26830077  0.08380584  0.30211865    -0.00100
C58         C  0.25278670  0.09249800  0.25651820    -0.23000
C59         C  0.27631463  0.09043161  0.21910885    -0.23200
C60         C  0.30553129  0.08079312  0.24311095    -0.00200
H61         H  0.22603783  0.09802434  0.25156726     0.13500
H62         H  0.27243374  0.09518773  0.17880118     0.13600
N63         N  0.48295724  0.06339333  0.10029710    -0.35900
N64         N  0.53566798  0.05474110  0.02964075    -0.56400
N65         N  0.47497577  0.04814396  0.45522436    -0.35900
N66         N  0.43606232  0.07738161  0.01843924    -0.56400
C67         C  0.50041512  0.04464107  0.13454432     0.27700
C68         C  0.44889046  0.05887761  0.12797394     0.27700
C69         C  0.50817890  0.05149712  0.42670349     0.27700
C70         C  0.45147954  0.05882804  0.42166457     0.27700
C71         C  0.55622649  0.05339571  0.07097485     0.36300
C72         C  0.54693560  0.03811374  0.49870845     0.36300
C73         C  0.42018603  0.08734416  0.05369333     0.36300
C74         C  0.42187586  0.08852700  0.97398485     0.36300
C75         C  0.47769034  0.02867349  0.18464931    -0.21100
C76         C  0.44504369  0.03763338  0.18048693    -0.21100
C77         C  0.50542149  0.06390462  0.37437083    -0.21100
C78         C  0.46983329  0.06881526  0.37114051    -0.21100
C79         C  0.59586430  0.05815342  0.05703288    -0.22200
C80         C  0.59986325  0.06305845  0.00515999    -0.22200
C81         C  0.39644604  0.10568549  0.03127339    -0.22200
C82         C  0.39721006  0.10610401  0.98081407    -0.22200
C83         C  0.53794026  0.04402681  0.12213833    -0.17500
C84         C  0.42231404  0.07499703  0.10726904    -0.17500
C85         C  0.41269059  0.05751538  0.43589448    -0.17500
C86         C  0.53936053  0.04137634  0.44718233    -0.17500
H87         H  0.48414705  0.01256887  0.22056698     0.15400
H88         H  0.42129706  0.02953120  0.21254714     0.15400
H89         H  0.52680893  0.06886698  0.34191266     0.15400
H90         H  0.45848926  0.07818759  0.33563741     0.15400
H91         H  0.61910160  0.05740638  0.08186748     0.13700
H92         H  0.58844108  0.00939603  0.50778878     0.13600
H93         H  0.37890124  0.11595306  0.04997063     0.13700
H94         H  0.38044807  0.11686772  0.95284003     0.13600
H95         H  0.49632614  0.08226422  0.06131224     0.26900
H96         H  0.46609358  0.03487247  0.49549592     0.26900
N97         N  0.94063068  0.32333708  0.50847683    -0.02700
C98         C  0.92818748  0.28068071  0.52439890    -0.00100
C99         C  0.93107382  0.27022918  0.08234030    -0.23000
C100        C  0.92056783  0.29503315  0.09993959    -0.23200
C101        C  0.92070188  0.32537410  0.05649074    -0.00200
H102        H  0.93426895  0.24361727  0.10615354     0.13500
H103        H  0.91557603  0.29269463  0.14011961     0.13600
N104        N  0.00377565  0.73461650  0.39490280    -0.02700
C105        C  0.01866474  0.77795955  0.37830738    -0.00100
C106        C  0.03252254  0.79608284  0.32493872    -0.23000
C107        C  0.02560699  0.76307841  0.30770676    -0.23200
C108        C  0.00796638  0.72589378  0.35109294    -0.00200
H109        H  0.04344949  0.82917132  0.30069803     0.13500
H110        H  0.03121354  0.76551028  0.26760653     0.13600
N111        N  0.96268801  0.51829578  0.28048750    -0.35900
N112        N  0.96667855  0.58466272  0.18734045    -0.56400
N113        N  0.95447599  0.52939716  0.12628322    -0.35900
N114        N  0.94396953  0.46047582  0.22100320    -0.56400
C115        C  0.96129469  0.54552193  0.30245478     0.27700
C116        C  0.95166708  0.48085835  0.31953452     0.27700
C117        C  0.95279585  0.56194696  0.09026650     0.27700
C118        C  0.93911693  0.49574447  0.10822432     0.27700
C119        C  0.97814657  0.60718772  0.22064531     0.36300
C120        C  0.97587763  0.61390096  0.13906828     0.36300
C121        C  0.94918807  0.43684348  0.26567297     0.36300
C122        C  0.94314119  0.44211940  0.18498169     0.36300
C123        C  0.94979342  0.52532983  0.35613178    -0.21100
C124        C  0.94382570  0.48463858  0.36690813    -0.21100
C125        C  0.93681897  0.54901346  0.04844605    -0.21100
C126        C  0.92810779  0.50727215  0.05982680    -0.21100
C127        C  0.99439898  0.65089079  0.19330609    -0.22200
C128        C  0.99295262  0.65510329  0.14175651    -0.22200
C129        C  0.95124717  0.40313090  0.25809539    -0.22200
C130        C  0.94738396  0.40641724  0.20716697    -0.22200
C131        C  0.97207594  0.58879995  0.27569104    -0.17500
C132        C  0.95032868  0.44406511  0.31387517    -0.17500
C133        C  0.93686745  0.45578199  0.13288524    -0.17500
C134        C  0.96707766  0.60370801  0.09288114    -0.17500
H135        H  0.94635111  0.53862041  0.38470653     0.15400
H136        H  0.93475548  0.46057828  0.40536272     0.15400
H137        H  0.93204634  0.56774586  0.01321205     0.15400
H138        H  0.91544732  0.48778231  0.03500122     0.15400
H139        H  0.00604722  0.67709630  0.20885676     0.13700
H140        H  0.00305286  0.68504775  0.10993640     0.13600
H141        H  0.95509847  0.37864293  0.28631002     0.13700
H142        H  0.94775659  0.38493331  0.18858557     0.13600
H143        H  0.97485020  0.52640268  0.24192537     0.26900
H144        H  0.96944473  0.53168456  0.15849147     0.26900
O145        O  0.03635762  0.03138236  0.40172482    -0.87600
C146        C  0.92868599  0.93531431  0.04284606     0.88400
Mg147      Mg  0.08171232  0.09784576  0.39749732     1.58100
O148        O  0.90553415  0.98440543  0.41480378    -0.87300
O149        O  0.98901045  0.99320632  0.36015909    -0.74700
C150        C  0.95622808  0.16779926  0.45291024     0.93500
O151        O  0.03374112  0.00903666  0.03851091    -0.74500
O152        O  0.99396642  0.17332355  0.45527333    -0.82000
Mg153      Mg  0.02840108  0.98302028  0.47454556     1.58000
C154        C  0.81490702  0.02309578  0.42225913     0.93400
O155        O  0.01933143  0.93148087  0.43941212    -0.80200
H156        H  0.89930855  0.98921189  0.34073349    -0.05600
C157        C  0.91615891  0.03633190  0.03519515     0.88300
O158        O  0.04298046  0.12209271  0.34476410    -0.74700
O159        O  0.95964645  0.95968000  0.48529237    -0.87500
O160        O  0.81843849  0.98982076  0.44061435    -0.80300
C161        C  0.82907110  0.87542990  0.47693211     0.93500
C162        C  0.98847540  0.89815130  0.43186801     0.93400
Mg163      Mg  0.91983961  0.08613055  0.40558403     1.58000
O164        O  0.92582833  0.13521748  0.44348904    -0.80200
O165        O  0.91051434  0.04195853  0.35828377    -0.74500
O166        O  0.86745347  0.88383866  0.48161268    -0.80300
O167        O  0.10060428  0.00887288  0.45686933    -0.82000
O168        O  0.08275193  0.18785570  0.40735585    -0.80400
C169        C  0.90446831  0.00409665  0.37030454     0.87800
O170        O  0.98878017  0.11012677  0.39725823    -0.87500
O171        O  0.90862550  0.03647739  0.47953466    -0.87600
O172        O  0.95473262  0.06244040  0.03930912    -0.74700
Mg173      Mg  0.92822937  0.94018506  0.42293933     1.58000
O174        O  0.81837254  0.90242440  0.47907908    -0.82000
H175        H  0.05018744  0.04383471  0.32537704    -0.05800
O176        O  0.04251379  0.08508256  0.46637225    -0.87300
H177        H  0.04805646  0.06092217  0.06011594    -0.05600
H178        H  0.99846351  0.13833365  0.31999143    -0.05800
C179        C  0.04032417  0.04689841  0.02959232     0.87800
C180        C  0.02656056  0.02367895  0.36110683     0.88400
C181        C  0.00948462  0.12430304  0.35283986     0.88400
H182        H  0.89138359  0.01593635  0.06989985    -0.05700
O183        O  0.89612729  0.93980071  0.04783975    -0.74800
Mg184      Mg  0.01901182  0.12804771  0.46059403     1.58000
H185        H  0.93776466  0.92063109  0.07728813    -0.05800
C186        C  0.13252292  0.04781917  0.44434765     0.93400
O187        O  0.12894536  0.16685723  0.39706767    -0.82000
C188        C  0.12160281  0.19578836  0.40063620     0.93500
O189        O  0.95088090  0.89295977  0.42992279    -0.82000
Mg190      Mg  0.86443968  0.97041614  0.48318800     1.58200
O191        O  0.12628425  0.07833582  0.44359698    -0.80300
O192        O  0.84756213  0.06141137  0.41204595    -0.82000
C193        C  0.01001086  0.80152264  0.40674349    -0.04700
C194        C  0.04517741  0.84006435  0.40990301    -0.32100
C195        C  0.03872357  0.87121111  0.41959283     0.37100
C196        C  0.99632699  0.86432068  0.42577860    -0.05100
C197        C  0.96093704  0.82452624  0.42523044    -0.32000
C198        C  0.96756004  0.79337640  0.41581117     0.37000
H199        H  0.07813697  0.84727345  0.40152252     0.17400
O200        O  0.07441360  0.90900779  0.42057195    -0.59500
H201        H  0.92801375  0.81807227  0.43017056     0.17400
O202        O  0.93281078  0.75727439  0.40985012    -0.59600
H203        H  0.92218778  0.73447271  0.44479749     0.44400
H204        H  0.08429509  0.92918003  0.38398573     0.44300
C205        C  0.99274297  0.68286765  0.34683054    -0.04700
C206        C  0.02107794  0.66719781  0.35058770    -0.32100
C207        C  0.01314880  0.63425048  0.33072805     0.37100
C208        C  0.97654986  0.61679508  0.30676342    -0.05100
C209        C  0.94639393  0.63000791  0.30716364    -0.32000
C210        C  0.95429865  0.66281876  0.32701942     0.37000
H211        H  0.05091348  0.68265753  0.36544128     0.17400
O212        O  0.04264426  0.62120558  0.33204507    -0.59500
H213        H  0.91799231  0.61665743  0.28915808     0.17400
O214        O  0.92619035  0.67773821  0.32286406    -0.59600
H215        H  0.90198297  0.65688489  0.35283652     0.44400
H216        H  0.06283380  0.63941449  0.29813804     0.44300
C217        C  0.99314283  0.70511657  0.44783350    -0.04700
C218        C  0.95669754  0.66263923  0.46262068    -0.32100
C219        C  0.94018600  0.64893118  0.03475320     0.37100
C220        C  0.97255107  0.63831724  0.04407877    -0.05100
C221        C  0.00901574  0.65834104  0.00499417    -0.32000
C222        C  0.02238815  0.71601044  0.48283608     0.37000
H223        H  0.93350872  0.65378682  0.43674678     0.17400
O224        O  0.90421329  0.62985557  0.07230299    -0.59500
H225        H  0.03437693  0.65083778  0.01186357     0.17400
O226        O  0.05876519  0.75686925  0.46949841    -0.59600
H227        H  0.05298596  0.77087608  0.49151030     0.44400
H228        H  0.91199460  0.64994874  0.09221112     0.44300
C229        C  0.94717957  0.19982569  0.46195276    -0.04700
C230        C  0.91840939  0.19706093  0.97875593    -0.32100
C231        C  0.91183437  0.22807484  0.98896000     0.37100
C232        C  0.93104223  0.25712835  0.49157138    -0.05100
C233        C  0.97211350  0.27212877  0.46477497    -0.32000
C234        C  0.98052168  0.24372047  0.45054167     0.37000
H235        H  0.89062830  0.16883192  0.97397827     0.17400
O236        O  0.87056009  0.22104546  0.99431348    -0.59500
H237        H  0.99878172  0.30485371  0.45900563     0.17400
O238        O  0.02161555  0.25900441  0.42629211    -0.59600
H239        H  0.03935616  0.26094169  0.45425835     0.44400
H240        H  0.85691734  0.20192584  0.03100496     0.44300
C241        C  0.92801764  0.42629997  0.10243617    -0.04700
C242        C  0.96126702  0.43614435  0.06451760    -0.32100
C243        C  0.95709292  0.40478808  0.04367114     0.37100
C244        C  0.91938389  0.36293078  0.06103103    -0.05100
C245        C  0.88455052  0.35460391  0.09521332    -0.32000
C246        C  0.88860635  0.38599014  0.11576927     0.37000
H247        H  0.99172860  0.46710542  0.05387331     0.17400
O248        O  0.02114824  0.38007341  0.59374993    -0.59500
H249        H  0.85535064  0.32249887  0.10905922     0.17400
O250        O  0.85487511  0.37623410  0.15106650    -0.59600
H251        H  0.85697135  0.35859821  0.18479017     0.44400
H252        H  0.04326569  0.39456902  0.56167528     0.44300
C253        C  0.94475546  0.35118535  0.45673120    -0.04700
C254        C  0.98296030  0.39205640  0.43443430    -0.32100
C255        C  0.98551777  0.42176074  0.38721307     0.37100
C256        C  0.94936086  0.41109363  0.36163207    -0.05100
C257        C  0.91153015  0.36971181  0.38313748    -0.32000
C258        C  0.90906096  0.33992111  0.43037284     0.37000
H259        H  0.01055078  0.40119769  0.45441764     0.17400
O260        O  0.02303343  0.46177966  0.36719486    -0.59500
H261        H  0.88339647  0.36107332  0.36407660     0.17400
O262        O  0.87092905  0.30067134  0.45179664    -0.59600
H263        H  0.85313157  0.30627347  0.47258607     0.44400
H264        H  0.03822725  0.45996308  0.33861480     0.44300
C265        C  0.17649422  0.05838574  0.42348044    -0.04700
C266        C  0.18203283  0.02454793  0.42070522    -0.32100
C267        C  0.21634122  0.03314642  0.38559563     0.37100
C268        C  0.24569888  0.07598715  0.35267149    -0.05100
C269        C  0.24355494  0.11016138  0.35990489    -0.32000
C270        C  0.20959871  0.10180683  0.39527589     0.37000
H271        H  0.15746342  0.99093766  0.44203928     0.17400
O272        O  0.21719739  0.99902792  0.37865137    -0.59500
H273        H  0.26600378  0.14331100  0.33459891     0.17400
O274        O  0.20716487  0.13624998  0.39834667    -0.59600
H275        H  0.19560577  0.14516354  0.36704565     0.44400
H276        H  0.23663156  0.99422240  0.40188590     0.44300
C277        C  0.33651689  0.07563209  0.21527602    -0.04700
C278        C  0.31987167  0.04549882  0.18915812    -0.32100
C279        C  0.34760745  0.04489202  0.15420423     0.37100
C280        C  0.39257729  0.07513131  0.14448576    -0.05100
C281        C  0.40958200  0.10402418  0.17229444    -0.32000
C282        C  0.38179950  0.10422885  0.20794989     0.37000
H283        H  0.28505459  0.02309925  0.19493167     0.17400
O284        O  0.33069824  0.01442042  0.13005192    -0.59500
H285        H  0.44436987  0.12680030  0.16572497     0.17400
O286        O  0.39883624  0.13436464  0.23253433    -0.59600
H287        H  0.41440404  0.12478633  0.25815760     0.44400
H288        H  0.31875894  0.02585812  0.10097210     0.44300
C289        C  0.32817628  0.07097898  0.33013458    -0.04700
C290        C  0.33237709  0.03442143  0.34194928    -0.32100
C291        C  0.36101607  0.03015024  0.37486108     0.37100
C292        C  0.38627993  0.06305670  0.39559723    -0.05100
C293        C  0.38284106  0.10006418  0.38241950    -0.32000
C294        C  0.35365159  0.10384795  0.35061731     0.37000
H295        H  0.31306214  0.00908573  0.32600382     0.17400
O296        O  0.36277297  0.99306530  0.38832906    -0.59500
H297        H  0.40214321  0.12563161  0.39807546     0.17400
O298        O  0.35162216  0.14076140  0.33759233    -0.59600
H299        H  0.33597355  0.13827367  0.36943642     0.44400
H300        H  0.38287537  0.99771614  0.35908443     0.44300
C301        C  0.69326549  0.00051424  0.37512705    -0.04700
C302        C  0.72784164  0.04327705  0.36490060    -0.32100
C303        C  0.76668767  0.05157388  0.38346860     0.37100
C304        C  0.77166626  0.01657724  0.41175141    -0.05100
C305        C  0.73493689  0.97412297  0.42723583    -0.32000
C306        C  0.69602191  0.96604149  0.40920698     0.37000
H307        H  0.72674189  0.07012212  0.33770161     0.17400
O308        O  0.80072809  0.09379966  0.36947577    -0.59500
H309        H  0.73705108  0.94665626  0.45065577     0.17400
O310        O  0.66202354  0.92391008  0.42117199    -0.59600
H311        H  0.67005301  0.91198620  0.39807840     0.44400
H312        H  0.79596550  0.10478605  0.39614557     0.44300
C313        C  0.59589800  0.00463697  0.24710236    -0.04700
C314        C  0.60776802  0.04832679  0.22631132    -0.32100
C315        C  0.58904137  0.06157389  0.18540192     0.37100
C316        C  0.55780971  0.03080974  0.16566293    -0.05100
C317        C  0.54446917  0.98688316  0.18804450    -0.32000
C318        C  0.56336919  0.97368096  0.22859067     0.37000
H319        H  0.63341569  0.07251444  0.23958979     0.17400
O320        O  0.60215396  0.10467450  0.16399710    -0.59500
H321        H  0.51993101  0.96301507  0.17336151     0.17400
O322        O  0.55137871  0.93079948  0.24839452    -0.59600
H323        H  0.52409247  0.91621482  0.27376151     0.42200
H324        H  0.62566544  0.11686131  0.13409806     0.44300
C325        C  0.61219258  0.01269059  0.35555140    -0.04700
C326        C  0.63195510  0.05366333  0.36126954    -0.32100
C327        C  0.60855033  0.06361770  0.39052947     0.37100
C328        C  0.56457082  0.03265815  0.41380718    -0.05100
C329        C  0.54492151  0.99179225  0.40795702    -0.32000
C330        C  0.56833161  0.98178351  0.37907159     0.37000
H331        H  0.66526314  0.07813373  0.34239991     0.17400
O332        O  0.62859467  0.10391430  0.39542096    -0.59500
H333        H  0.51139706  0.96739615  0.42634340     0.17400
O334        O  0.54848729  0.94122735  0.37492536    -0.59600
H335        H  0.52783091  0.94078853  0.35077328     0.44400
H336        H  0.64468832  0.10194043  0.42456391     0.44300
C337        C  0.75145643  0.77466116  0.41408050    -0.04700
C338        C  0.73307541  0.79533698  0.43035628    -0.32100
C339        C  0.75666178  0.82649613  0.45396927     0.37100
C340        C  0.79890915  0.83636930  0.46315726    -0.05100
C341        C  0.81542434  0.81264630  0.45061147    -0.32000
C342        C  0.79239024  0.78259983  0.42572196     0.37000
H343        H  0.70174198  0.78980871  0.42115800     0.17400
O344        O  0.73889581  0.84849530  0.46546536    -0.59500
H345        H  0.84769768  0.81937297  0.45686668     0.17400
O346        O  0.81129963  0.76298104  0.41014377    -0.59600
H347        H  0.80487900  0.73773743  0.44127791     0.44400
H348        H  0.74447044  0.87158588  0.43208388     0.44300
C349        C  0.64455504  0.67988486  0.32482628    -0.04700
C350        C  0.62061761  0.69386785  0.29264777    -0.32100
C351        C  0.58905516  0.66630680  0.26988309     0.37100
C352        C  0.58107717  0.62414333  0.27951009    -0.05100
C353        C  0.60357677  0.60951629  0.31367347    -0.32000
C354        C  0.63528634  0.63715594  0.33615057     0.37000
H355        H  0.62798010  0.72694859  0.28311948     0.17400
O356        O  0.56715349  0.68118440  0.23704303    -0.59500
H357        H  0.59800542  0.57728950  0.32081579     0.17400
O358        O  0.65953777  0.62336582  0.36554036    -0.59600
H359        H  0.64634494  0.61435484  0.40222797     0.44400
H360        H  0.58721118  0.69851401  0.20295230     0.44300
C361        C  0.59538262  0.62448298  0.02472824    -0.04700
C362        C  0.61687321  0.60939350  0.00185494    -0.32100
C363        C  0.66775136  0.67286064  0.47693207     0.37100
C364        C  0.65783422  0.69359948  0.43143611    -0.05100
C365        C  0.61589907  0.68725001  0.43221611    -0.32000
C366        C  0.60584667  0.66776578  0.00204008     0.37000
H367        H  0.60893927  0.57607498  0.01898995     0.17400
O368        O  0.70781677  0.67693194  0.47672537    -0.59500
H369        H  0.60798256  0.70330265  0.39762183     0.17400
O370        O  0.58483051  0.68306996  0.02333150    -0.59600
H371        H  0.55821821  0.67552632  0.00760475     0.44400
H372        H  0.72199198  0.69372116  0.50002654     0.44300
C373        C  0.21821161  0.29988480  0.44579005    -0.04700
C374        C  0.17977930  0.29873427  0.43404826    -0.32100
C375        C  0.15026383  0.26854399  0.41254701     0.37100
C376        C  0.15826028  0.23765286  0.40371720    -0.05100
C377        C  0.20237776  0.21398959  0.92917014    -0.32000
C378        C  0.23642492  0.24367245  0.94704945     0.37000
H379        H  0.17091195  0.31905507  0.44549297     0.17400
O380        O  0.11175371  0.26682087  0.40544427    -0.59500
H381        H  0.20297397  0.18585521  0.92795755     0.17400
O382        O  0.26788638  0.23505213  0.96417371    -0.59600
H383        H  0.25597899  0.21587197  0.00112223     0.44400
H384        H  0.11781412  0.28751375  0.36980835     0.44300
C385        C  0.38014691  0.42977082  0.34682276    -0.04700
C386        C  0.38841047  0.40760750  0.39232594    -0.32100
C387        C  0.35561742  0.38026008  0.43641587     0.37100
C388        C  0.31429803  0.37567050  0.43568954    -0.05100
C389        C  0.30597590  0.39747314  0.38986647    -0.32000
C390        C  0.33857351  0.42439690  0.34559242     0.37000
H391        H  0.42015312  0.41111989  0.39331558     0.17400
O392        O  0.36401452  0.35768931  0.47982711    -0.59500
H393        H  0.27432738  0.39414160  0.38885169     0.17400
O394        O  0.32946439  0.44502051  0.30108541    -0.59600
H395        H  0.34314535  0.47563205  0.29953823     0.44400
H396        H  0.35477530  0.32929245  0.47593133     0.44300
C397        C  0.39422417  0.42951032  0.09581011    -0.04700
C398        C  0.40661903  0.40988535  0.06827876    -0.32100
C399        C  0.37651474  0.38178448  0.04479534     0.37100
C400        C  0.33373165  0.37349062  0.04848022    -0.05100
C401        C  0.32195985  0.39431282  0.07445088    -0.32000
C402        C  0.35188337  0.42238095  0.09762756     0.37000
H403        H  0.43918572  0.41526972  0.06655021     0.17400
O404        O  0.38843835  0.36081978  0.02094307    -0.59500
H405        H  0.32883285  0.44272254  0.48860570     0.17400
O406        O  0.33892025  0.44127118  0.12397266    -0.59600
H407        H  0.34939013  0.47092633  0.09913938     0.44400
H408        H  0.38189252  0.33364449  0.04891751     0.44300
N409        N  0.29510889  0.33386843  0.98685794    -0.02700
C410        C  0.25712199  0.29590962  0.99392053    -0.00100
C411        C  0.21690209  0.30330438  0.53604107    -0.23000
C412        C  0.24634091  0.32549914  0.56375153    -0.23200
C413        C  0.28549400  0.35426686  0.52960351    -0.00200
H414        H  0.18311740  0.27786070  0.55108816     0.13500
H415        H  0.23972597  0.32157248  0.60426081     0.13600
N416        N  0.69371293  0.70999906  0.88986788    -0.02700
C417        C  0.73145254  0.74745688  0.88546067    -0.00100
C418        C  0.75696629  0.76394985  0.83728147    -0.23000
C419        C  0.73403452  0.73589773  0.81102525    -0.23200
C420        C  0.69515967  0.70305221  0.84406624    -0.00200
H421        H  0.78833992  0.79383515  0.82232117     0.13500
H422        H  0.74384584  0.74016934  0.77125080     0.13600
N423        N  0.48442645  0.53016634  0.76109159    -0.35900
N424        N  0.54730175  0.59024072  0.66547752    -0.56400
N425        N  0.48694965  0.54282244  0.60483540    -0.35900
N426        N  0.42627104  0.47995846  0.70132053    -0.56400
C427        C  0.52003015  0.55173682  0.78129983     0.27700
C428        C  0.45476144  0.49387119  0.80021775     0.27700
C429        C  0.52427040  0.56905487  0.56926085     0.27700
C430        C  0.46053934  0.50926787  0.58861668     0.27700
C431        C  0.56708274  0.61138461  0.69869837     0.36300
C432        C  0.56747775  0.61899523  0.61679439     0.36300
C433        C  0.39909841  0.46021539  0.74775234     0.36300
C434        C  0.40133627  0.46595522  0.66620849     0.36300
C435        C  0.51257906  0.52921475  0.83417634    -0.21100
C436        C  0.47135801  0.49277063  0.84614841    -0.21100
C437        C  0.52140803  0.55221521  0.52972079    -0.21100
C438        C  0.48123500  0.51443041  0.54201249    -0.21100
C439        C  0.59982144  0.65374993  0.67095713    -0.22200
C440        C  0.59995871  0.65861916  0.61912244    -0.22200
C441        C  0.35675299  0.43371311  0.74207171    -0.22200
C442        C  0.35812928  0.43747148  0.69043950    -0.22200
C443        C  0.55814949  0.59218951  0.75370346    -0.17500
C444        C  0.41242701  0.46282042  0.79597513    -0.17500
C445        C  0.41763179  0.47517584  0.61386086    -0.17500
C446        C  0.56010815  0.60859865  0.57065549    -0.17500
H447        H  0.53440451  0.53824941  0.86144074     0.15400
H448        H  0.45537617  0.46835174  0.88440875     0.15400
H449        H  0.54579270  0.56567681  0.49559737     0.15400
H450        H  0.46869852  0.49322581  0.51916105     0.15400
H451        H  0.62164617  0.67847266  0.68645819     0.13700
H452        H  0.62210256  0.68773942  0.58685706     0.13600
H453        H  0.32796168  0.41329009  0.77217092     0.13700
H454        H  0.33055202  0.42053904  0.67292937     0.13600
H455        H  0.47891615  0.54160969  0.72399911     0.26900
H456        H  0.47842279  0.54980458  0.63557837     0.26900
N457        N  0.64935847  0.02452327  0.81415212    -0.02700
C458        C  0.67613089  0.00857374  0.82532182    -0.00100
C459        C  0.68377695  0.99663389  0.78495648    -0.23000
C460        C  0.66131045  0.00547355  0.74764635    -0.23200
C461        C  0.64066272  0.02244452  0.76643645    -0.00200
H462        H  0.70537882  0.98493936  0.78177809     0.13500
H463        H  0.66070742  0.00085463  0.71034447     0.13600
N464        N  0.29513329  0.06427454  0.80280692    -0.02700
C465        C  0.25478364  0.05594754  0.81807219    -0.00100
C466        C  0.23387578  0.05868333  0.77594307    -0.23000
C467        C  0.26187112  0.06862235  0.73326502    -0.23200
C468        C  0.29909089  0.07168991  0.75064091    -0.00200
H469        H  0.20146568  0.05356944  0.77641705     0.13500
H470        H  0.25508823  0.07152443  0.69412857     0.13600
N471        N  0.47849994  0.06190349  0.59879497    -0.35900
N472        N  0.53255499  0.05210332  0.53022972    -0.56400
N473        N  0.49088180  0.07205942  0.94568438    -0.35900
N474        N  0.42406392  0.06279086  0.52259531    -0.56400
C475        C  0.51347637  0.07086861  0.62234660     0.27700
C476        C  0.45617842  0.07619625  0.61833880     0.27700
C477        C  0.51266503  0.05761244  0.92505879     0.27700
C478        C  0.45673187  0.06613324  0.92074095     0.27700
C479        C  0.54797658  0.04469955  0.57493259     0.36300
C480        C  0.56213398  0.06034379  0.98936191     0.36300
C481        C  0.39968338  0.05992955  0.56298039     0.36300
C482        C  0.39854512  0.05402071  0.48640316     0.36300
C483        C  0.51370076  0.09139909  0.65693541    -0.21100
C484        C  0.47745397  0.09486875  0.65430351    -0.21100
C485        C  0.49274464  0.04330718  0.88566276    -0.21100
C486        C  0.45737390  0.04853933  0.88306190    -0.21100
C487        C  0.57258939  0.02632931  0.57159006    -0.22200
C488        C  0.57210230  0.02235606  0.52319222    -0.22200
C489        C  0.35852920  0.04940973  0.55238414    -0.22200
C490        C  0.35781794  0.04577394  0.50382484    -0.22200
C491        C  0.54233936  0.05672916  0.61744833    -0.17500
C492        C  0.41518287  0.06918382  0.60788441    -0.17500
C493        C  0.42595282  0.07752665  0.93004205    -0.17500
C494        C  0.55026566  0.05745887  0.94069844    -0.17500
H495        H  0.53698013  0.10179470  0.68235146     0.15400
H496        H  0.46732333  0.10857506  0.67717907     0.15400
H497        H  0.50231425  0.02989230  0.86177675     0.15400
H498        H  0.43465529  0.04022332  0.85651899     0.15400
H499        H  0.58948666  0.01711967  0.60078313     0.13700
H500        H  0.62686749  0.06675052  0.98218617     0.13600
H501        H  0.33197197  0.04528848  0.57673730     0.13700
H502        H  0.33053856  0.03837623  0.48339425     0.13600
H503        H  0.46732103  0.04157678  0.57678016     0.26900
H504        H  0.50094952  0.08836980  0.97227885     0.26900
N505        N  0.93032539  0.31973604  0.01212776    -0.02700
C506        C  0.93710916  0.28588753  0.02864697    -0.00100
C507        C  0.92517237  0.26477692  0.57776906    -0.23000
C508        C  0.93642835  0.29858488  0.59537251    -0.23200
C509        C  0.94597712  0.33409245  0.55221978    -0.00200
H510        H  0.91862530  0.23284229  0.60089749     0.13500
H511        H  0.93830051  0.29766258  0.63523906     0.13600
N512        N  0.97917785  0.71995478  0.89358225    -0.02700
C513        C  0.97370140  0.75440664  0.87796534    -0.00100
C514        C  0.97551722  0.76834451  0.82471790    -0.23000
C515        C  0.98215443  0.74151270  0.80652447    -0.23200
C516        C  0.98404865  0.71217723  0.84937440    -0.00200
H517        H  0.97247702  0.79528006  0.80167816     0.13500
H518        H  0.98420317  0.74245250  0.76658487     0.13600
N519        N  0.96209573  0.51373113  0.77947885    -0.35900
N520        N  0.97510493  0.58468758  0.68514636    -0.56400
N521        N  0.96928713  0.53391774  0.62215798    -0.35900
N522        N  0.96129377  0.46503520  0.71605167    -0.56400
C523        C  0.97560160  0.54668493  0.79824029     0.27700
C524        C  0.96539826  0.48208801  0.81492195     0.27700
C525        C  0.98230644  0.57263613  0.58456156     0.27700
C526        C  0.97754591  0.51021358  0.60033775     0.27700
C527        C  0.96894123  0.59870021  0.72271150     0.36300
C528        C  0.97081343  0.60877545  0.64020791     0.36300
C529        C  0.94798341  0.43352069  0.76347023     0.36300
C530        C  0.95386703  0.44511608  0.68033916     0.36300
C531        C  0.98736889  0.53583632  0.84632079    -0.21100
C532        C  0.98072913  0.49490758  0.85696224    -0.21100
C533        C  0.99871020  0.57338267  0.53809256    -0.21100
C534        C  0.99579345  0.53400007  0.54808222    -0.21100
C535        C  0.96084759  0.63194462  0.70148977    -0.22200
C536        C  0.96190294  0.63821872  0.64923881    -0.22200
C537        C  0.93220764  0.39345937  0.75795349    -0.22200
C538        C  0.93589595  0.40074693  0.70533279    -0.22200
C539        C  0.97453463  0.58480946  0.77482390    -0.17500
C540        C  0.95268645  0.44110579  0.81137292    -0.17500
C541        C  0.96628970  0.46667363  0.62554571    -0.17500
C542        C  0.97768456  0.60630906  0.59069961    -0.17500
H543        H  0.99890590  0.55512387  0.87148830     0.15400
H544        H  0.98639934  0.47662940  0.89173855     0.15400
H545        H  0.01126451  0.59948174  0.50080537     0.15400
H546        H  0.00544800  0.52381960  0.51987998     0.15400
H547        H  0.95531205  0.65017206  0.72148156     0.13700
H548        H  0.95720723  0.66208295  0.62106337     0.13600
H549        H  0.91986841  0.36237221  0.78859073     0.13700
H550        H  0.92674206  0.37616690  0.68749375     0.13600
H551        H  0.94674697  0.51101087  0.74740164     0.26900
H552        H  0.95125166  0.52232265  0.65897895     0.26900
O553        O  0.02795391  0.01471613  0.91855996    -0.87600
C554        C  0.93853518  0.94580276  0.52935495     0.88400
Mg555      Mg  0.07596799  0.07900403  0.91687179     1.58100
O556        O  0.90267913  0.98132091  0.92672085    -0.87300
O557        O  0.98058740  0.98132493  0.87377546    -0.74700
C558        C  0.96441644  0.16527096  0.97143180     0.93500
O559        O  0.04081718  0.02866692  0.52107813    -0.74500
O560        O  0.99928591  0.16497918  0.97919504    -0.82000
Mg561      Mg  0.01710765  0.96404864  0.98982235     1.58000
C562        C  0.81878884  0.02777221  0.92681462     0.93400
O563        O  0.00273406  0.91197026  0.95217251    -0.80200
H564        H  0.89995079  0.98929810  0.85135928    -0.05600
C565        C  0.91963383  0.04317505  0.52030225     0.88300
O566        O  0.04169028  0.10917167  0.86475902    -0.74700
O567        O  0.94998411  0.94716608  0.99950453    -0.87500
O568        O  0.82029972  0.99340100  0.94611954    -0.80300
C569        C  0.81917369  0.87236787  0.98602371     0.93500
C570        C  0.96876701  0.88104189  0.94451369     0.93400
Mg571      Mg  0.92355062  0.08520567  0.91949512     1.58000
O572        O  0.93348439  0.13592188  0.95748662    -0.80200
O573        O  0.91322402  0.04181657  0.87078375    -0.74500
O574        O  0.85628615  0.87839094  0.99350930    -0.80300
O575        O  0.08826633  0.98488349  0.97231661    -0.82000
O576        O  0.08746581  0.17216992  0.93690430    -0.80400
C577        C  0.90465730  0.00311922  0.88191627     0.87800
O578        O  0.99093618  0.10372782  0.91613520    -0.87500
O579        O  0.90651899  0.03245466  0.99290162    -0.87600
O580        O  0.95759888  0.07303724  0.52106845    -0.74700
Mg581      Mg  0.91835671  0.93215491  0.93555337     1.58000
O582        O  0.81101057  0.90159369  0.98536778    -0.82000
H583        H  0.04389665  0.02796151  0.84239905    -0.05800
O584        O  0.03791633  0.06789015  0.98671481    -0.87300
H585        H  0.05202047  0.08110781  0.53946710    -0.05600
H586        H  0.00363212  0.13385150  0.83905433    -0.05800
C587        C  0.04560281  0.06598902  0.51000679     0.87800
C588        C  0.01892261  0.00877824  0.87695908     0.88400
C589        C  0.01187079  0.11673992  0.87223127     0.88400
H590        H  0.89668314  0.02239576  0.55649420    -0.05700
O591        O  0.90409441  0.94683047  0.53618722    -0.74800
Mg592      Mg  0.01937519  0.11513546  0.98327934     1.58000
H593        H  0.94951770  0.93246506  0.56280915    -0.05800
C594        C  0.12202719  0.02271002  0.96112940     0.93400
O595        O  0.12608223  0.14571005  0.91640279    -0.82000
C596        C  0.12385960  0.17657650  0.92307254     0.93500
O597        O  0.93359650  0.88099203  0.94282130    -0.82000
Mg598      Mg  0.86036024  0.96811397  0.99277177     1.58200
O599        O  0.11854570  0.05471582  0.96113502    -0.80300
O600        O  0.85198572  0.06534032  0.91993511    -0.82000
C601        C  0.96916286  0.77737388  0.91011576    -0.04700
C602        C  0.00651975  0.80764085  0.92343636    -0.32100
C603        C  0.00695841  0.84112342  0.93634457     0.37100
C604        C  0.96926820  0.84400586  0.93667700    -0.05100
C605        C  0.93094472  0.81115735  0.92744244    -0.32000
C606        C  0.93088282  0.77841760  0.91379476     0.37000
H607        H  0.03640763  0.80747847  0.91960224     0.17400
O608        O  0.04480908  0.87164820  0.94636294    -0.59500
H609        H  0.90122646  0.81188750  0.92810544     0.17400
O610        O  0.89435541  0.74991768  0.89936230    -0.59600
H611        H  0.87692599  0.72515031  0.93195564     0.44400
H612        H  0.06186601  0.89347112  0.91173748     0.44300
C613        C  0.98602248  0.67520861  0.84548893    -0.04700
C614        C  0.02235814  0.68417059  0.81376762    -0.32100
C615        C  0.02006203  0.65321289  0.79400420     0.37100
C616        C  0.98091942  0.61298997  0.80566825    -0.05100
C617        C  0.94586563  0.60245962  0.84128353    -0.32000
C618        C  0.94834842  0.63341522  0.86153039     0.37000
H619        H  0.05141844  0.71638104  0.80116301     0.17400
O620        O  0.05520761  0.66335774  0.76076048    -0.59500
H621        H  0.91561624  0.57145898  0.85036957     0.17400
O622        O  0.91222094  0.62433966  0.89181816    -0.59600
H623        H  0.91300353  0.60867942  0.92769384     0.44400
H624        H  0.05360219  0.68024428  0.72610089     0.44300
C625        C  0.97885890  0.69561305  0.94577104    -0.04700
C626        C  0.94336790  0.67727630  0.98574854    -0.32100
C627        C  0.95073487  0.63076751  0.50959800     0.37100
C628        C  0.98140412  0.64096060  0.54299268    -0.05100
C629        C  0.01651304  0.68399898  0.52983694    -0.32000
C630        C  0.01253254  0.68714521  0.95644262     0.37000
H631        H  0.91724192  0.68349282  0.97818679     0.17400
O632        O  0.91571000  0.58922331  0.52156964    -0.59500
H633        H  0.04029582  0.69241495  0.55523040     0.17400
O634        O  0.04869158  0.70630029  0.91917447    -0.59600
H635        H  0.06873758  0.73493564  0.92270588     0.44400
H636        H  0.89445213  0.58638918  0.54780418     0.44300
C637        C  0.95944480  0.20084613  0.97798176    -0.04700
C638        C  0.90496961  0.18614738  0.48413339    -0.32100
C639        C  0.89698064  0.21425893  0.49970078     0.37100
C640        C  0.94658312  0.26430062  0.99752343    -0.05100
C641        C  0.98817876  0.26983737  0.99326647    -0.32000
C642        C  0.99487194  0.23871893  0.98350141     0.37000
H643        H  0.87867564  0.15280357  0.49249630     0.17400
O644        O  0.85629432  0.19901842  0.52521556    -0.59500
H645        H  0.01508204  0.29695710  0.00113652     0.17400
O646        O  0.03609151  0.24547315  0.98029500    -0.59600
H647        H  0.03987789  0.23575252  0.01684281     0.44400
H648        H  0.85477773  0.18239791  0.56168535     0.44300
C649        C  0.96826165  0.44178338  0.59356897    -0.04700
C650        C  0.99818452  0.42802238  0.60064721    -0.32100
C651        C  0.99379231  0.39567672  0.58218957     0.37100
C652        C  0.95926740  0.37683233  0.55601034    -0.05100
C653        C  0.93239619  0.39403753  0.54365539    -0.32000
C654        C  0.93661056  0.42634156  0.56257451     0.37000
H655        H  0.02295552  0.44007638  0.62395579     0.17400
O656        O  0.99209617  0.41357471  0.01154636    -0.59500
H657        H  0.90580128  0.37983801  0.52340440     0.17400
O658        O  0.90780498  0.44034411  0.55384941    -0.59600
H659        H  0.88117476  0.41781285  0.58014807     0.44400
H660        H  0.99085508  0.43004006  0.97642047     0.44300
C661        C  0.93326733  0.34532342  0.95926670    -0.04700
C662        C  0.97080128  0.36467970  0.92188365    -0.32100
C663        C  0.97667840  0.39447392  0.87270899     0.37100
C664        C  0.94477154  0.40527144  0.86021293    -0.05100
C665        C  0.90631419  0.38430663  0.89646272    -0.32000
C666        C  0.90035539  0.35449643  0.94558347     0.37000
H667        H  0.99653188  0.35830156  0.93181652     0.17400
O668        O  0.01483102  0.41485662  0.83829967    -0.59500
H669        H  0.88126612  0.39191609  0.88707467     0.17400
O670        O  0.86198365  0.33381765  0.97984528    -0.59600
H671        H  0.86062220  0.35704208  0.98813170     0.44400
H672        H  0.00893323  0.39671787  0.81611823     0.44300
C673        C  0.16512921  0.03047867  0.94114828    -0.04700
C674        C  0.16710681  0.99575739  0.93464353    -0.32100
C675        C  0.20093768  0.00352663  0.89944800     0.37100
C676        C  0.23397036  0.04642739  0.87075711    -0.05100
C677        C  0.23552003  0.08071609  0.88264020    -0.32000
C678        C  0.20147039  0.07316877  0.91736139     0.37000
H679        H  0.14013000  0.96260487  0.95260052     0.17400
O680        O  0.19817043  0.96937952  0.88797398    -0.59500
H681        H  0.26056314  0.11395143  0.86046427     0.17400
O682        O  0.20231582  0.10821566  0.92386666    -0.59600
H683        H  0.19380844  0.12119515  0.89206214     0.44400
H684        H  0.20648442  0.95413400  0.91796759     0.44300
C685        C  0.33409535  0.07541362  0.71711571    -0.04700
C686        C  0.34560455  0.04381146  0.73260972    -0.32100
C687        C  0.37196178  0.04160070  0.69733509     0.37100
C688        C  0.38769063  0.07162820  0.64597444    -0.05100
C689        C  0.37775626  0.10440361  0.63121066    -0.32000
C690        C  0.35113776  0.10639921  0.66631276     0.37000
H691        H  0.33225375  0.01934915  0.77119032     0.17400
O692        O  0.38138214  0.00934234  0.71292964    -0.59500
H693        H  0.39022349  0.12810352  0.59212008     0.17400
O694        O  0.34101760  0.13812501  0.65017582    -0.59600
H695        H  0.36097463  0.16100869  0.66410341     0.44400
H696        H  0.35651973  0.98385104  0.70719444     0.44300
C697        C  0.32820585  0.06760055  0.83427776    -0.04700
C698        C  0.31901789  0.03304704  0.87987312    -0.32100
C699        C  0.35107164  0.03568780  0.91029745     0.37100
C700        C  0.39302429  0.07335819  0.89551230    -0.05100
C701        C  0.40239615  0.10793785  0.84988212    -0.32000
C702        C  0.37028349  0.10530030  0.81944633     0.37000
H703        H  0.28707063  0.00378099  0.89151300     0.17400
O704        O  0.34096611  0.00155168  0.95499100    -0.59500
H705        H  0.43436150  0.13731420  0.83850506     0.17400
O706        O  0.38003715  0.14006090  0.77574995    -0.59600
H707        H  0.37109193  0.15757947  0.78750812     0.44400
H708        H  0.35101837  0.98418412  0.94481041     0.44300
C709        C  0.70269739  0.01177096  0.86685622    -0.04700
C710        C  0.73497488  0.05302765  0.86666506    -0.32100
C711        C  0.77200745  0.05881186  0.88883700     0.37100
C712        C  0.77711460  0.02289268  0.91139666    -0.05100
C713        C  0.74212523  0.98107671  0.91664050    -0.32000
C714        C  0.70543770  0.97545327  0.89438976     0.37000
H715        H  0.73351264  0.08135406  0.84509563     0.17400
O716        O  0.80418181  0.10005593  0.88482702    -0.59500
H717        H  0.74413478  0.95256235  0.93521995     0.17400
O718        O  0.67354804  0.93449960  0.89664587    -0.59600
H719        H  0.68631197  0.92685645  0.87230044     0.44400
H720        H  0.79614487  0.10456725  0.91620944     0.44300
C721        C  0.61426070  0.03707895  0.73593225    -0.04700
C722        C  0.63552720  0.07346640  0.69023364    -0.32100
C723        C  0.61202172  0.08163735  0.65241971     0.37100
C724        C  0.56686140  0.05291189  0.66012685    -0.05100
C725        C  0.54510207  0.01846273  0.70764824    -0.32000
C726        C  0.56864665  0.01051037  0.74573170     0.37000
H727        H  0.67071851  0.09410186  0.68261651     0.17400
O728        O  0.63343541  0.11683413  0.60736314    -0.59500
H729        H  0.51015479  0.99651109  0.71398873     0.17400
O730        O  0.54735636  0.97464858  0.79011716    -0.59600
H731        H  0.53876286  0.98468310  0.81528646     0.42200
H732        H  0.64504434  0.10725866  0.58443285     0.44300
C733        C  0.62841314  0.03503069  0.84784867    -0.04700
C734        C  0.62642284  0.07292115  0.82879028    -0.32100
C735        C  0.60083397  0.08043042  0.85821894     0.37100
C736        C  0.57633658  0.04964235  0.90735289    -0.05100
C737        C  0.57867739  0.01202451  0.92659284    -0.32000
C738        C  0.60457045  0.00475638  0.89748201     0.37000
H739        H  0.64445377  0.09650640  0.79065558     0.17400
O740        O  0.59981037  0.11780557  0.83857026    -0.59500
H741        H  0.56023794  0.98815196  0.96449847     0.17400
O742        O  0.60518240  0.96718840  0.91719505    -0.59600
H743        H  0.58132267  0.94584251  0.90450771     0.44400
H744        H  0.62166462  0.13839308  0.85390144     0.44300
C745        C  0.74420791  0.77028578  0.92391088    -0.04700
C746        C  0.73232771  0.80079102  0.92215755    -0.32100
C747        C  0.75373495  0.83205466  0.94625740     0.37100
C748        C  0.78801285  0.83336329  0.97257725    -0.05100
C749        C  0.79748830  0.80056237  0.97739546    -0.32000
C750        C  0.77605846  0.76945618  0.95319041     0.37000
H751        H  0.70865795  0.80256185  0.89861945     0.17400
O752        O  0.74304790  0.86308760  0.94029396    -0.59500
H753        H  0.82367132  0.80066853  0.99709058     0.17400
O754        O  0.78922512  0.74083002  0.95446166    -0.59600
H755        H  0.77211136  0.71581995  0.98699984     0.44400
H756        H  0.75996632  0.88572801  0.90599258     0.44300
C757        C  0.65849468  0.66944502  0.82771243    -0.04700
C758        C  0.61645405  0.66243014  0.83612257    -0.32100
C759        C  0.58303693  0.63592552  0.81406321     0.37100
C760        C  0.59123944  0.61569961  0.78331234    -0.05100
C761        C  0.63266033  0.62106464  0.77689127    -0.32000
C762        C  0.66608243  0.64760465  0.79881147     0.37000
H763        H  0.61001582  0.67934881  0.85749801     0.17400
O764        O  0.54295425  0.63137995  0.82103520    -0.59500
H765        H  0.63940737  0.60561660  0.75341585     0.17400
O766        O  0.70641279  0.65289606  0.79057432    -0.59600
H767        H  0.70625170  0.63041422  0.82088467     0.44400
H768        H  0.54348409  0.65344730  0.78976540     0.44300
C769        C  0.59370571  0.63881692  0.52254548    -0.04700
C770        C  0.63575940  0.64557364  0.52187017    -0.32100
C771        C  0.64950016  0.63744139  0.95769771     0.37100
C772        C  0.66059014  0.68102374  0.93558823    -0.05100
C773        C  0.63837631  0.69575145  0.95784195    -0.32000
C774        C  0.58389983  0.66004772  0.47733875     0.37000
H775        H  0.64359006  0.62905956  0.55620129     0.17400
O776        O  0.67076574  0.62223910  0.93662353    -0.59500
H777        H  0.64583881  0.72880766  0.94041661     0.17400
O778        O  0.54334978  0.65483464  0.47727235    -0.59600
H779        H  0.52817998  0.63412591  0.45856870     0.44400
H780        H  0.69256406  0.62247801  0.95894984     0.44300
C781        C  0.23508096  0.27849035  0.95387745    -0.04700
C782        C  0.20082364  0.28469926  0.93903475    -0.32100
C783        C  0.16563711  0.25384616  0.92344805     0.37100
C784        C  0.16504620  0.21663629  0.92133803    -0.05100
C785        C  0.19944777  0.24267383  0.40928848    -0.32000
C786        C  0.22923505  0.27341345  0.43033452     0.37000
H787        H  0.19876807  0.31066772  0.94557743     0.17400
O788        O  0.13019158  0.25813224  0.91589210    -0.59500
H789        H  0.20707000  0.22011993  0.40199918     0.17400
O790        O  0.26696331  0.27424966  0.44038566    -0.59600
H791        H  0.25927223  0.25278052  0.47589655     0.44400
H792        H  0.13337109  0.27058110  0.87758262     0.44300
C793        C  0.38119525  0.42947537  0.84481185    -0.04700
C794        C  0.37562088  0.38797361  0.86213743    -0.32100
C795        C  0.34702584  0.35613696  0.90851762     0.37100
C796        C  0.32359402  0.36569823  0.93827945    -0.05100
C797        C  0.32937151  0.40736083  0.92102199    -0.32000
C798        C  0.35791303  0.43914443  0.87460122     0.37000
H799        H  0.39398109  0.38046722  0.83992571     0.17400
O800        O  0.34418012  0.31671660  0.92628552    -0.59500
H801        H  0.31162073  0.41510437  0.94373325     0.17400
O802        O  0.36240472  0.47933321  0.85819448    -0.59600
H803        H  0.38716067  0.49729333  0.87317277     0.44400
H804        H  0.33485890  0.30410849  0.89821900     0.44300
C805        C  0.38892348  0.44569470  0.58595852    -0.04700
C806        C  0.37395557  0.40113150  0.60681785    -0.32100
C807        C  0.34185728  0.37147510  0.58683360     0.37100
C808        C  0.32483442  0.38614552  0.54439918    -0.05100
C809        C  0.34187890  0.43099479  0.52102450    -0.32000
C810        C  0.37371529  0.46076382  0.54157317     0.37000
H811        H  0.38586198  0.38907689  0.64032271     0.17400
O812        O  0.32697416  0.32799494  0.60925812    -0.59500
H813        H  0.28886882  0.38753952  0.07829322     0.17400
O814        O  0.38749192  0.50404353  0.52037791    -0.59600
H815        H  0.40903386  0.51545589  0.48862865     0.44400
H816        H  0.30587598  0.31763897  0.64102367     0.44300
loop_ 
_geom_bond_atom_site_label_1 
_geom_bond_atom_site_label_2 
_geom_bond_distance 
_geom_bond_site_symmetry_2 
_ccdc_geom_bond_type 
N1            C2   1.360       .  A
N1          C413   1.360       .  A
N1          C388   1.438       .  S
C2          C373   1.486       .  S
C2          C411   1.382       .  A
C3            C4   1.369       .  A
C3          C410   1.381   1_554  A
C3            H6   1.082       .  S
C4            C5   1.381       .  A
C4            H7   1.082       .  S
C5          N409   1.358   1_554  A
C5          C400   1.473       .  S
N8           C12   1.357       .  A
N8            C9   1.359       .  A
N8          C364   1.442       .  S
C9          C337   1.482       .  S
C9           C10   1.383       .  A
C10          C11   1.375       .  A
C10          H13   1.082       .  S
C11          C12   1.380       .  A
C11          H14   1.082       .  S
C12         C349   1.476       .  S
N15          C20   1.352       .  A
N15          C19   1.353       .  A
N15          H47   1.038       .  S
N16          C23   1.354       .  A
N16          C24   1.352       .  A
N17          C22   1.354       .  A
N17          C21   1.352       .  A
N17          H48   1.039       .  S
N18          C25   1.351       .  A
N18          C26   1.351       .  A
C19          C27   1.386       .  A
C19          C35   1.412       .  A
C20          C36   1.416       .  A
C20          C28   1.389       .  A
C21          C29   1.387       .  A
C21          C38   1.413       .  A
C22          C37   1.414       .  A
C22          C30   1.387       .  A
C23          C35   1.415       .  A
C23          C31   1.386       .  A
C24          C38   1.414       .  A
C24          C32   1.387       .  A
C25          C33   1.387       .  A
C25          C36   1.413       .  A
C26          C34   1.387       .  A
C26          C37   1.414       .  A
C27          C28   1.377       .  A
C27          H39   1.083       .  S
C28          H40   1.082       .  S
C29          C30   1.375       .  A
C29          H41   1.082   1_554  S
C30          H42   1.082       .  S
C31          C32   1.371       .  A
C31          H43   1.082       .  S
C32          H44   1.082       .  S
C33          C34   1.371       .  A
C33          H45   1.083       .  S
C34          H46   1.082       .  S
C35         C352   1.488       .  S
C36         C385   1.483       .  S
C37         C397   1.487       .  S
C38         C361   1.484       .  S
N49          C53   1.357   1_545  A
N49          C50   1.359   1_545  A
N49         C325   1.446       .  S
C50         C301   1.472   1_565  S
C50          C51   1.383       .  A
C51          C52   1.366       .  A
C51          H54   1.083       .  S
C52          C53   1.379       .  A
C52          H55   1.082       .  S
C53         C313   1.468   1_565  S
N56          C60   1.355       .  A
N56          C57   1.356       .  A
N56         C289   1.439       .  S
C57         C268   1.475       .  S
C57          C58   1.382       .  A
C58          C59   1.372       .  A
C58          H61   1.082       .  S
C59          C60   1.380       .  A
C59          H62   1.082       .  S
C60         C277   1.471       .  S
N63          C68   1.349       .  A
N63          C67   1.349       .  A
N63          H95   1.040       .  S
N64          C71   1.352       .  A
N64         C480   1.351   1_554  A
N65          C70   1.355       .  A
N65          C69   1.357       .  A
N65          H96   1.037       .  S
N66          C73   1.351       .  A
N66          C74   1.350   1_554  A
C67          C75   1.387       .  A
C67          C83   1.405       .  A
C68          C84   1.407       .  A
C68          C76   1.388       .  A
C69          C77   1.386       .  A
C69          C86   1.420       .  A
C70          C85   1.422       .  A
C70          C78   1.388       .  A
C71          C83   1.410       .  A
C71          C79   1.384       .  A
C72         N472   1.353       .  A
C72          C86   1.415       .  A
C72         C488   1.386       .  A
C73          C81   1.386       .  A
C73          C84   1.412       .  A
C74          C82   1.387       .  A
C74         C493   1.412       .  A
C75          C76   1.371       .  A
C75          H87   1.082       .  S
C76          H88   1.083       .  S
C77          C78   1.381       .  A
C77          H89   1.083       .  S
C78          H90   1.082       .  S
C79          C80   1.371       .  A
C79          H91   1.082       .  S
C80         C480   1.388   1_554  A
C80         H500   1.082   1_554  S
C81          C82   1.374   1_554  A
C81          H93   1.082       .  S
C82          H94   1.082       .  S
C83         C316   1.475       .  S
C84         C280   1.479       .  S
C85         C292   1.489       .  S
C85         C482   1.416       .  A
C86         C328   1.497       .  S
H92         C488   1.082       .  S
N97          C98   1.359       .  A
N97         C509   1.357       .  A
N97         C253   1.444       .  S
C98         C232   1.473       .  S
C98         C507   1.383       .  A
C99         C100   1.368       .  A
C99         C506   1.380       .  A
C99         H102   1.082       .  S
C100        C101   1.381       .  A
C100        H103   1.082       .  S
C101        N505   1.364       .  A
C101        C244   1.483       .  S
N104        C108   1.359       .  A
N104        C105   1.362       .  A
N104        C217   1.447   1_455  S
C105        C193   1.476       .  S
C105        C106   1.382       .  A
C106        C107   1.370       .  A
C106        H109   1.083       .  S
C107        C108   1.379       .  A
C107        H110   1.082       .  S
C108        C205   1.476   1_455  S
N111        C116   1.355       .  A
N111        C115   1.356       .  A
N111        H143   1.035       .  S
N112        C119   1.353       .  A
N112        C120   1.355       .  A
N113        C118   1.355       .  A
N113        C117   1.355       .  A
N113        H144   1.034       .  S
N114        C121   1.356       .  A
N114        C122   1.355       .  A
C115        C123   1.387       .  A
C115        C131   1.418       .  A
C116        C132   1.420       .  A
C116        C124   1.388       .  A
C117        C125   1.388       .  A
C117        C134   1.419       .  A
C118        C133   1.418       .  A
C118        C126   1.387       .  A
C119        C131   1.421       .  A
C119        C127   1.388       .  A
C120        C134   1.417       .  A
C120        C128   1.385       .  A
C121        C129   1.385       .  A
C121        C132   1.419       .  A
C122        C130   1.388       .  A
C122        C133   1.422       .  A
C123        C124   1.376       .  A
C123        H135   1.082       .  S
C124        H136   1.083       .  S
C125        C126   1.376       .  A
C125        H137   1.082       .  S
C126        H138   1.082       .  S
C127        C128   1.373       .  A
C127        H139   1.082   1_655  S
C128        H140   1.082   1_655  S
C129        C130   1.373       .  A
C129        H141   1.082       .  S
C130        H142   1.082       .  S
C131        C208   1.493       .  S
C132        C256   1.498       .  S
C133        C241   1.493       .  S
C134        C220   1.493       .  S
O145       Mg147   2.172       .  S
O145       Mg153   2.166   1_545  S
O145        C180   1.237       .  S
C146        H185   1.081       .  S
C146        O567   1.238   1_554  S
C146        O183   1.277       .  A
Mg147       O176   2.133       .  S
Mg147       O191   2.307       .  S
Mg147       O187   2.290       .  S
Mg147       O158   2.311       .  S
O148       Mg190   2.143       .  S
O148       Mg173   2.154       .  S
O148        C169   1.234   1_565  S
O149        C180   1.272   1_665  A
O149       Mg173   2.309       .  S
C150        C229   1.483       .  S
C150        O152   1.272       .  A
C150        O164   1.274       .  A
O151        C179   1.270       .  A
O151       Mg561   2.311   1_544  S
O152       Mg184   2.267   1_655  S
Mg153       O159   2.158   1_455  S
Mg153       O167   2.265   1_565  S
Mg153       O155   2.300       .  S
Mg153       O559   2.307   1_565  S
C154        C304   1.491       .  S
C154        O192   1.272       .  A
C154        O160   1.276   1_545  A
O155        C162   1.273   1_455  A
H156        C169   1.081   1_565  S
C157        H182   1.081       .  S
C157        O579   1.235   1_554  S
C157        O172   1.270       .  A
O158        C181   1.273       .  A
O159       Mg173   2.153       .  S
O159        C554   1.237       .  S
O160       Mg190   2.308       .  S
C161        C340   1.493       .  S
C161        O174   1.271       .  A
C161        O166   1.269       .  A
C162        C196   1.491       .  S
C162        O189   1.270       .  A
Mg163       O170   2.160       .  S
Mg163       O171   2.180       .  S
Mg163       O164   2.301       .  S
Mg163       O165   2.300       .  S
Mg163       O192   2.269       .  S
O165        C169   1.268       .  A
O166       Mg173   2.284       .  S
O167        C186   1.271       .  A
O168        C188   1.276       .  A
O168       Mg184   2.316       .  S
O170       Mg184   2.144   1_655  S
O170        C181   1.237   1_655  S
O171       Mg190   2.158   1_545  S
O171        C565   1.236       .  S
O172       Mg592   2.300   1_654  S
Mg173       O189   2.264       .  S
O174       Mg190   2.298       .  S
H175        C180   1.081       .  S
O176       Mg184   2.141       .  S
O176        C587   1.233       .  S
H177        C179   1.081       .  S
H178        C181   1.081   1_655  S
C179        O584   1.234   1_554  S
O183       Mg598   2.339   1_554  S
Mg184       O580   2.305   1_455  S
C186        C265   1.491       .  S
C186        O191   1.273       .  A
O187        C188   1.274       .  A
C188        C376   1.499       .  S
Mg190       O591   2.328       .  S
C193        C194   1.402       .  A
C193        C198   1.406   1_455  A
C194        C195   1.401       .  A
C194        H199   1.084       .  S
C195        C196   1.415   1_455  A
C195        O200   1.372       .  S
C196        C197   1.409       .  A
C197        C198   1.402       .  A
C197        H201   1.083       .  S
C198        O202   1.372       .  S
O200        H204   0.991       .  S
O202        H203   0.991       .  S
C205        C206   1.402   1_655  A
C205        C210   1.407       .  A
C206        C207   1.404       .  A
C206        H211   1.083       .  S
C207        C208   1.410   1_455  A
C207        O212   1.371       .  S
C208        C209   1.403       .  A
C209        C210   1.399       .  A
C209        H213   1.084       .  S
C210        O214   1.372       .  S
O212        H216   0.991       .  S
O214        H215   0.991       .  S
C217        C218   1.405       .  A
C217        C222   1.412   1_655  A
C218        C627   1.402       .  A
C218        H223   1.081       .  S
C219        C220   1.409       .  A
C219        C626   1.406   1_554  A
C219        O224   1.371       .  S
C220        C221   1.402   1_655  A
C221        C630   1.401   1_554  A
C221        H225   1.083       .  S
C222        C629   1.406       .  A
C222        O226   1.371       .  S
O224        H228   0.992       .  S
O226        H227   0.992       .  S
C229        C234   1.412       .  A
C229        C638   1.405       .  A
C230        C231   1.405       .  A
C230        C637   1.410       .  A
C230        H235   1.083       .  S
C231        C640   1.405       .  A
C231        O236   1.372       .  S
C232        C233   1.400       .  A
C232        C639   1.407       .  A
C233        C234   1.402       .  A
C233        H237   1.084       .  S
C234        O238   1.372   1_655  S
O236        H240   0.992   1_556  S
O238        H239   0.991       .  S
C241        C242   1.404       .  A
C241        C246   1.407       .  A
C242        C243   1.404       .  A
C242        H247   1.083       .  S
C243        C244   1.407       .  A
C243        O656   1.371       .  S
C244        C245   1.406       .  A
C245        C246   1.402       .  A
C245        H249   1.084       .  S
C246        O250   1.372       .  S
O248        C651   1.372   1_455  S
O248        H252   0.991       .  S
O250        H251   0.991       .  S
C253        C254   1.403       .  A
C253        C258   1.409       .  A
C254        C255   1.402       .  A
C254        H259   1.083   1_655  S
C255        C256   1.410       .  A
C255        O260   1.371   1_655  S
C256        C257   1.405       .  A
C257        C258   1.405       .  A
C257        H261   1.083       .  S
C258        O262   1.371       .  S
O260        H264   0.991       .  S
O262        H263   0.992       .  S
C265        C266   1.410       .  A
C265        C270   1.415       .  A
C266        C267   1.402       .  A
C266        H271   1.083   1_545  S
C267        C268   1.405       .  A
C267        O272   1.371   1_545  S
C268        C269   1.400       .  A
C269        C270   1.401       .  A
C269        H273   1.084       .  S
C270        O274   1.372       .  S
O272        H276   0.991       .  S
O274        H275   0.993       .  S
C277        C278   1.402       .  A
C277        C282   1.407       .  A
C278        C279   1.395       .  A
C278        H283   1.084       .  S
C279        C280   1.404       .  A
C279        O284   1.372       .  S
C280        C281   1.403       .  A
C281        C282   1.401       .  A
C281        H285   1.084       .  S
C282        O286   1.371       .  S
O284        H288   0.991       .  S
O286        H287   0.993       .  S
C289        C290   1.405       .  A
C289        C294   1.404       .  A
C290        C291   1.405       .  A
C290        H295   1.083       .  S
C291        C292   1.408       .  A
C291        O296   1.371   1_545  S
C292        C293   1.403       .  A
C293        C294   1.397       .  A
C293        H297   1.084       .  S
C294        O298   1.371       .  S
O296        H300   0.991       .  S
O298        H299   0.991       .  S
C301        C302   1.401       .  A
C301        C306   1.406   1_545  A
C302        C303   1.402       .  A
C302        H307   1.083       .  S
C303        C304   1.415       .  A
C303        O308   1.371       .  S
C304        C305   1.407   1_545  A
C305        C306   1.400       .  A
C305        H309   1.083       .  S
C306        O310   1.373       .  S
O308        H312   0.992       .  S
O310        H311   0.991       .  S
C313        C314   1.402       .  A
C313        C318   1.407   1_545  A
C314        C315   1.398       .  A
C314        H319   1.084       .  S
C315        C316   1.405       .  A
C315        O320   1.371       .  S
C316        C317   1.399   1_545  A
C317        C318   1.395       .  A
C317        H321   1.084       .  S
C318        O322   1.372       .  S
O320        H324   0.992       .  S
O322        H323   0.991       .  S
C325        C326   1.404       .  A
C325        C330   1.409   1_545  A
C326        C327   1.409       .  A
C326        H331   1.081       .  S
C327        C328   1.411       .  A
C327        O332   1.371       .  S
C328        C329   1.402   1_545  A
C329        C330   1.404       .  A
C329        H333   1.083       .  S
C330        O334   1.371       .  S
O332        H336   0.991       .  S
O334        H335   0.991       .  S
C337        C338   1.402       .  A
C337        C342   1.406       .  A
C338        C339   1.406       .  A
C338        H343   1.084       .  S
C339        C340   1.415       .  A
C339        O344   1.372       .  S
C340        C341   1.409       .  A
C341        C342   1.399       .  A
C341        H345   1.083       .  S
C342        O346   1.372       .  S
O344        H348   0.992       .  S
O346        H347   0.992       .  S
C349        C350   1.403       .  A
C349        C354   1.406       .  A
C350        C351   1.402       .  A
C350        H355   1.084       .  S
C351        C352   1.407       .  A
C351        O356   1.372       .  S
C352        C353   1.403       .  A
C353        C354   1.401       .  A
C353        H357   1.083       .  S
C354        O358   1.371       .  S
O356        H360   0.992       .  S
O358        H359   0.991       .  S
C361        C362   1.402       .  A
C361        C366   1.407       .  A
C362        C771   1.399   1_554  A
C362        H367   1.084       .  S
C363        C364   1.408       .  A
C363        C770   1.400       .  A
C363        O368   1.371       .  S
C364        C365   1.404       .  A
C365        C774   1.404       .  A
C365        H369   1.083       .  S
C366        C773   1.398   1_554  A
C366        O370   1.371       .  S
O368        H372   0.992       .  S
O370        H371   0.992       .  S
C373        C374   1.402       .  A
C373        C786   1.407       .  A
C374        C375   1.401       .  A
C374        H379   1.084       .  S
C375        C376   1.415       .  A
C375        O380   1.371       .  S
C376        C785   1.411       .  A
C377        C378   1.397       .  A
C377        C784   1.407       .  A
C377        H381   1.083       .  S
C378        C781   1.405       .  A
C378        O382   1.372       .  S
O380        H384   0.992       .  S
O382        H383   0.991   1_556  S
C385        C386   1.401       .  A
C385        C390   1.408       .  A
C386        C387   1.399       .  A
C386        H391   1.084       .  S
C387        C388   1.409       .  A
C387        O392   1.370       .  S
C388        C389   1.402       .  A
C389        C390   1.398       .  A
C389        H393   1.083       .  S
C390        O394   1.372       .  S
O392        H396   0.992       .  S
O394        H395   0.992       .  S
C397        C398   1.405       .  A
C397        C402   1.407       .  A
C398        C399   1.403       .  A
C398        H403   1.083       .  S
C399        C400   1.407       .  A
C399        O404   1.371       .  S
C400        C401   1.402       .  A
C401        C402   1.395       .  A
C401        H813   1.084       .  S
C402        O406   1.372       .  S
O404        H408   0.992       .  S
H405        C809   1.083       .  S
O406        H407   0.992       .  S
N409        C410   1.358       .  A
N409        C796   1.442       .  S
C410        C781   1.472       .  S
C411        C412   1.375       .  A
C411        H414   1.082       .  S
C412        C413   1.381       .  A
C412        H415   1.082       .  S
C413        C808   1.486       .  S
N416        C420   1.359       .  A
N416        C417   1.358       .  A
N416        C772   1.438       .  S
C417        C745   1.484       .  S
C417        C418   1.381       .  A
C418        C419   1.378       .  A
C418        H421   1.082       .  S
C419        C420   1.384       .  A
C419        H422   1.082       .  S
C420        C757   1.490       .  S
N423        C428   1.353       .  A
N423        C427   1.355       .  A
N423        H455   1.038       .  S
N424        C431   1.353       .  A
N424        C432   1.353       .  A
N425        C430   1.356       .  A
N425        C429   1.354       .  A
N425        H456   1.040       .  S
N426        C433   1.354       .  A
N426        C434   1.354       .  A
C427        C435   1.387       .  A
C427        C443   1.418       .  A
C428        C444   1.417       .  A
C428        C436   1.388       .  A
C429        C437   1.387       .  A
C429        C446   1.417       .  A
C430        C445   1.417       .  A
C430        C438   1.387       .  A
C431        C443   1.417       .  A
C431        C439   1.386       .  A
C432        C446   1.416       .  A
C432        C440   1.386       .  A
C433        C441   1.386       .  A
C433        C444   1.416       .  A
C434        C442   1.387       .  A
C434        C445   1.418       .  A
C435        C436   1.378       .  A
C435        H447   1.082       .  S
C436        H448   1.083       .  S
C437        C438   1.378       .  A
C437        H449   1.083       .  S
C438        H450   1.082       .  S
C439        C440   1.372       .  A
C439        H451   1.082       .  S
C440        H452   1.082       .  S
C441        C442   1.373       .  A
C441        H453   1.082       .  S
C442        H454   1.082       .  S
C443        C760   1.494       .  S
C444        C793   1.490       .  S
C445        C805   1.498       .  S
C446        C769   1.492       .  S
N457        C461   1.356       .  A
N457        C458   1.361       .  A
N457        C733   1.445       .  S
C458        C709   1.477       .  S
C458        C459   1.384   1_545  A
C459        C460   1.367   1_565  A
C459        H462   1.082       .  S
C460        C461   1.377       .  A
C460        H463   1.082       .  S
C461        C721   1.466       .  S
N464        C468   1.361       .  A
N464        C465   1.360       .  A
N464        C697   1.444       .  S
C465        C676   1.479       .  S
C465        C466   1.381       .  A
C466        C467   1.371       .  A
C466        H469   1.082       .  S
C467        C468   1.382       .  A
C467        H470   1.082       .  S
C468        C685   1.481       .  S
N471        C476   1.351       .  A
N471        C475   1.348       .  A
N471        H503   1.039       .  S
N472        C479   1.352       .  A
N473        C478   1.357       .  A
N473        C477   1.356       .  A
N473        H504   1.040       .  S
N474        C481   1.354       .  A
N474        C482   1.350       .  A
C475        C483   1.387       .  A
C475        C491   1.406       .  A
C476        C492   1.408       .  A
C476        C484   1.386       .  A
C477        C485   1.387       .  A
C477        C494   1.421       .  A
C478        C493   1.420       .  A
C478        C486   1.387       .  A
C479        C491   1.415       .  A
C479        C487   1.387       .  A
C480        C494   1.415       .  A
C481        C489   1.384       .  A
C481        C492   1.414       .  A
C482        C490   1.389       .  A
C483        C484   1.374       .  A
C483        H495   1.082       .  S
C484        H496   1.083       .  S
C485        C486   1.380       .  A
C485        H497   1.082       .  S
C486        H498   1.082       .  S
C487        C488   1.374       .  A
C487        H499   1.082       .  S
C489        C490   1.373       .  A
C489        H501   1.082       .  S
C490        H502   1.083       .  S
C491        C724   1.478       .  S
C492        C688   1.490       .  S
C493        C700   1.490       .  S
C494        C736   1.495       .  S
N505        C506   1.365       .  A
N505        C661   1.448   1_554  S
C506        C640   1.481   1_554  S
C507        C508   1.369       .  A
C507        H510   1.082       .  S
C508        C509   1.380       .  A
C508        H511   1.082       .  S
C509        C652   1.474       .  S
N512        C516   1.356       .  A
N512        C513   1.355       .  A
N512        C625   1.445       .  S
C513        C601   1.464       .  S
C513        C514   1.381       .  A
C514        C515   1.368       .  A
C514        H517   1.082       .  S
C515        C516   1.380       .  A
C515        H518   1.082       .  S
C516        C613   1.467       .  S
N519        C524   1.353       .  A
N519        C523   1.350       .  A
N519        H551   1.039       .  S
N520        C527   1.350       .  A
N520        C528   1.354       .  A
N521        C526   1.352       .  A
N521        C525   1.355       .  A
N521        H552   1.039       .  S
N522        C529   1.356       .  A
N522        C530   1.351       .  A
C523        C531   1.387       .  A
C523        C539   1.410       .  A
C524        C540   1.413       .  A
C524        C532   1.386       .  A
C525        C533   1.387       .  A
C525        C542   1.417       .  A
C526        C541   1.415       .  A
C526        C534   1.388       .  A
C527        C539   1.415       .  A
C527        C535   1.388       .  A
C528        C542   1.413       .  A
C528        C536   1.385       .  A
C529        C537   1.383       .  A
C529        C540   1.413       .  A
C530        C538   1.389       .  A
C530        C541   1.420       .  A
C531        C532   1.376       .  A
C531        H543   1.082       .  S
C532        H544   1.082       .  S
C533        C534   1.378       .  A
C533        H545   1.083   1_655  S
C534        H546   1.082   1_655  S
C535        C536   1.373       .  A
C535        H547   1.083       .  S
C536        H548   1.082       .  S
C537        C538   1.374       .  A
C537        H549   1.082       .  S
C538        H550   1.082       .  S
C539        C616   1.478       .  S
C540        C664   1.494       .  S
C541        C649   1.485       .  S
C542        C628   1.496       .  S
O553       Mg555   2.152       .  S
O553       Mg561   2.154   1_545  S
O553        C588   1.235       .  S
C554        H593   1.081       .  S
C554        O591   1.275       .  A
Mg555       O584   2.155       .  S
Mg555       O599   2.321       .  S
Mg555       O595   2.247       .  S
Mg555       O566   2.297       .  S
O556       Mg598   2.129       .  S
O556       Mg581   2.144       .  S
O556        C577   1.234   1_565  S
O557        C588   1.270   1_665  A
O557       Mg581   2.303       .  S
C558        C637   1.500       .  S
C558        O560   1.277       .  A
C558        O572   1.278       .  A
O559        C587   1.269       .  A
O560       Mg592   2.303   1_655  S
Mg561       O567   2.162   1_455  S
Mg561       O575   2.275       .  S
Mg561       O563   2.320       .  S
C562        C712   1.493       .  S
C562        O600   1.276       .  A
C562        O568   1.276   1_545  A
O563        C570   1.274   1_455  A
H564        C577   1.081   1_565  S
C565        H590   1.081       .  S
C565        O580   1.272       .  A
O566        C589   1.271       .  A
O567       Mg581   2.148       .  S
O568       Mg598   2.293       .  S
C569        C748   1.496       .  S
C569        O582   1.271       .  A
C569        O574   1.265       .  A
C570        C604   1.485       .  S
C570        O597   1.265       .  A
Mg571       O578   2.156       .  S
Mg571       O579   2.184       .  S
Mg571       O572   2.318       .  S
Mg571       O573   2.298       .  S
Mg571       O600   2.294       .  S
O573        C577   1.268       .  A
O574       Mg581   2.278       .  S
O575        C594   1.273   1_565  A
O576        C596   1.277       .  A
O576       Mg592   2.317       .  S
O578       Mg592   2.151   1_655  S
O578        C589   1.237   1_655  S
O579       Mg598   2.155   1_545  S
Mg581       O597   2.213       .  S
O582       Mg598   2.315       .  S
H583        C588   1.081       .  S
O584       Mg592   2.173       .  S
H585        C587   1.081       .  S
H586        C589   1.081       .  S
C594        C673   1.497       .  S
C594        O599   1.275       .  A
O595        C596   1.271       .  A
C596        C784   1.487       .  S
C601        C602   1.400   1_655  A
C601        C606   1.402       .  A
C602        C603   1.403       .  A
C602        H607   1.084       .  S
C603        C604   1.414   1_455  A
C603        O608   1.372       .  S
C604        C605   1.409       .  A
C605        C606   1.392       .  A
C605        H609   1.084       .  S
C606        O610   1.372       .  S
O608        H612   0.992       .  S
O610        H611   0.991       .  S
C613        C614   1.400   1_655  A
C613        C618   1.406       .  A
C614        C615   1.394       .  A
C614        H619   1.084       .  S
C615        C616   1.404   1_455  A
C615        O620   1.372       .  S
C616        C617   1.403       .  A
C617        C618   1.400       .  A
C617        H621   1.084       .  S
C618        O622   1.371       .  S
O620        H624   0.992       .  S
O622        H623   0.991       .  S
C625        C626   1.405       .  A
C625        C630   1.409   1_655  A
C626        H631   1.083       .  S
C627        C628   1.408       .  A
C627        O632   1.371       .  S
C628        C629   1.404   1_655  A
C629        H633   1.084       .  S
C630        O634   1.370       .  S
O632        H636   0.992       .  S
O634        H635   0.992       .  S
C637        C642   1.416       .  A
C638        C639   1.401       .  A
C638        H643   1.084       .  S
C639        O644   1.372       .  S
C640        C641   1.404       .  A
C641        C642   1.406       .  A
C641        H645   1.084   1_656  S
C642        O646   1.372   1_655  S
O644        H648   0.992       .  S
O646        H647   0.991   1_556  S
C649        C650   1.401       .  A
C649        C654   1.409       .  A
C650        C651   1.394       .  A
C650        H655   1.084   1_655  S
C651        C652   1.408       .  A
C652        C653   1.402       .  A
C653        C654   1.403       .  A
C653        H657   1.083       .  S
C654        O658   1.371       .  S
O656        H660   0.991   1_554  S
O658        H659   0.991       .  S
C661        C662   1.405       .  A
C661        C666   1.412       .  A
C662        C663   1.407       .  A
C662        H667   1.082       .  S
C663        C664   1.408       .  A
C663        O668   1.371   1_655  S
C664        C665   1.402       .  A
C665        C666   1.405       .  A
C665        H669   1.084       .  S
C666        O670   1.373       .  S
O668        H672   0.992       .  S
O670        H671   0.992       .  S
C673        C674   1.409   1_545  A
C673        C678   1.417       .  A
C674        C675   1.404   1_565  A
C674        H679   1.083       .  S
C675        C676   1.406       .  A
C675        O680   1.372   1_545  S
C676        C677   1.401       .  A
C677        C678   1.405       .  A
C677        H681   1.084       .  S
C678        O682   1.372       .  S
O680        H684   0.991       .  S
O682        H683   0.992       .  S
C685        C686   1.402       .  A
C685        C690   1.411       .  A
C686        C687   1.401       .  A
C686        H691   1.083       .  S
C687        C688   1.410       .  A
C687        O692   1.372       .  S
C688        C689   1.402       .  A
C689        C690   1.400       .  A
C689        H693   1.084       .  S
C690        O694   1.372       .  S
O692        H696   0.991   1_545  S
O694        H695   0.992       .  S
C697        C698   1.402       .  A
C697        C702   1.411       .  A
C698        C699   1.402       .  A
C698        H703   1.081       .  S
C699        C700   1.409       .  A
C699        O704   1.371       .  S
C700        C701   1.402       .  A
C701        C702   1.404       .  A
C701        H705   1.083       .  S
C702        O706   1.371       .  S
O704        H708   0.991   1_545  S
O706        H707   0.991       .  S
C709        C710   1.403       .  A
C709        C714   1.406   1_545  A
C710        C711   1.406       .  A
C710        H715   1.084       .  S
C711        C712   1.415       .  A
C711        O716   1.371       .  S
C712        C713   1.408   1_545  A
C713        C714   1.398       .  A
C713        H717   1.083       .  S
C714        O718   1.373       .  S
O716        H720   0.992       .  S
O718        H719   0.992       .  S
C721        C722   1.401       .  A
C721        C726   1.404       .  A
C722        C723   1.395       .  A
C722        H727   1.084       .  S
C723        C724   1.403       .  A
C723        O728   1.372       .  S
C724        C725   1.404       .  A
C725        C726   1.399       .  A
C725        H729   1.084   1_545  S
C726        O730   1.371   1_545  S
O728        H732   0.992       .  S
O730        H731   0.992       .  S
C733        C734   1.407       .  A
C733        C738   1.408       .  A
C734        C735   1.404       .  A
C734        H739   1.083       .  S
C735        C736   1.408       .  A
C735        O740   1.371       .  S
C736        C737   1.405       .  A
C737        C738   1.400       .  A
C737        H741   1.084   1_545  S
C738        O742   1.370   1_545  S
O740        H744   0.991       .  S
O742        H743   0.992       .  S
C745        C746   1.403       .  A
C745        C750   1.405       .  A
C746        C747   1.406       .  A
C746        H751   1.083       .  S
C747        C748   1.414       .  A
C747        O752   1.372       .  S
C748        C749   1.411       .  A
C749        C750   1.404       .  A
C749        H753   1.083       .  S
C750        O754   1.372       .  S
O752        H756   0.992       .  S
O754        H755   0.991       .  S
C757        C758   1.406       .  A
C757        C762   1.411       .  A
C758        C759   1.403       .  A
C758        H763   1.083       .  S
C759        C760   1.408       .  A
C759        O764   1.371       .  S
C760        C761   1.404       .  A
C761        C762   1.402       .  A
C761        H765   1.084       .  S
C762        O766   1.372       .  S
O764        H768   0.992       .  S
O766        H767   0.991       .  S
C769        C770   1.403       .  A
C769        C774   1.409       .  A
C770        H775   1.084       .  S
C771        C772   1.409       .  A
C771        O776   1.372       .  S
C772        C773   1.401       .  A
C773        H777   1.081       .  S
C774        O778   1.372       .  S
O776        H780   0.991       .  S
O778        H779   0.991       .  S
C781        C782   1.403       .  A
C782        C783   1.402       .  A
C782        H787   1.084       .  S
C783        C784   1.413       .  A
C783        O788   1.371       .  S
C785        C786   1.408       .  A
C785        H789   1.083       .  S
C786        O790   1.372       .  S
O788        H792   0.992       .  S
O790        H791   0.992       .  S
C793        C794   1.402       .  A
C793        C798   1.407       .  A
C794        C795   1.404       .  A
C794        H799   1.084       .  S
C795        C796   1.407       .  A
C795        O800   1.371       .  S
C796        C797   1.404       .  A
C797        C798   1.404       .  A
C797        H801   1.083       .  S
C798        O802   1.371       .  S
O800        H804   0.992       .  S
O802        H803   0.992       .  S
C805        C806   1.404       .  A
C805        C810   1.411       .  A
C806        C807   1.400       .  A
C806        H811   1.084       .  S
C807        C808   1.407       .  A
C807        O812   1.372       .  S
C808        C809   1.404       .  A
C809        C810   1.408       .  A
C810        O814   1.371       .  S
O812        H816   0.993       .  S
O814        H815   0.992       .  S
