geometry optimzed in LAMMPS
_audit_creation_date              2020-11-30 
_audit_creation_method            'lammps2cif' 
_symmetry_space_group_name_H-M    'P1' 
_symmetry_Int_Tables_number       1 
_symmetry_cell_setting            triclinic 
loop_ 
_symmetry_equiv_pos_as_xyz 
  x,y,z 
_cell_length_a                    43.07183303 
_cell_length_b                    41.52496867054981 
_cell_length_c                    33.82923377065687 
_cell_angle_alpha                 88.84182141877831 
_cell_angle_beta                  89.80226575100892 
_cell_angle_gamma                 121.09608089426887 
loop_ 
_atom_site_label 
_atom_site_type_symbol 
_atom_site_fract_x 
_atom_site_fract_y 
_atom_site_fract_z 
_atom_site_charge 
C1          C  0.11917031  0.12089747  0.13422921     0.79800
N2          N  0.14774513  0.11570467  0.13954855    -0.78500
C3          C  0.17590223  0.13963091  0.16240548     0.82200
N4          N  0.17581213  0.16893198  0.17869312    -0.78500
C5          C  0.14849016  0.17545174  0.17295273     0.82300
N6          N  0.12023756  0.15148116  0.15001386    -0.80200
C7          C  0.35815935  0.19177079  0.26665694     0.45000
H8          H  0.36143101  0.19432517  0.29920269    -0.04000
C9          C  0.35051725  0.18694697  0.19019800     0.45100
H10         H  0.34738042  0.18460253  0.15761279    -0.04000
C11         C  0.38012114  0.22972700  0.24419339    -0.17700
C12         C  0.37051447  0.16631397  0.24814326    -0.17400
C13         C  0.31873536  0.17567988  0.25330115    -0.17800
C14         C  0.37598128  0.22731774  0.20384698    -0.17800
C15         C  0.36578668  0.16369419  0.20774721    -0.17400
C16         C  0.31468621  0.17300757  0.21290653    -0.17700
C17         C  0.18339285  0.35661212  0.29030831     0.45000
H18         H  0.18113818  0.35815636  0.32283276    -0.04000
C19         C  0.18804574  0.35315723  0.21376243     0.45100
H20         H  0.18915385  0.35143544  0.18116549    -0.04000
C21         C  0.16844762  0.31646126  0.27607723    -0.17700
C22         C  0.16362941  0.37262300  0.26718002    -0.17400
C23         C  0.22228508  0.37844529  0.27408804    -0.17800
C24         C  0.17147167  0.31483728  0.23568376    -0.17800
C25         C  0.16465937  0.36927907  0.22702197    -0.17400
C26         C  0.22526724  0.37780770  0.23330513    -0.17700
C27         C  0.03428370  0.41957733  0.10829442     0.79800
N28         N  0.49848123  0.38900035  0.11330387    -0.78500
C29         C  0.49277189  0.35639364  0.13009799     0.82200
N30         N  0.02216923  0.35681244  0.14735790    -0.78500
C31         C  0.05682519  0.38550356  0.14158994     0.82300
N32         N  0.06289254  0.41689323  0.12111191    -0.80200
C33         C  0.40635680  0.01949532  0.10891498     0.79800
N34         N  0.40125904  0.04914960  0.11190286    -0.78500
C35         C  0.37214505  0.04514859  0.13178848     0.82200
N36         N  0.34838126  0.01134728  0.14803288    -0.78500
C37         C  0.35222918  0.48232062  0.14478449     0.82300
N38         N  0.38183317  0.48637985  0.12516364    -0.80200
C39         C  0.02062236  0.42532059  0.34701833     0.79800
N40         N  0.48977734  0.39356901  0.33309630    -0.78500
C41         C  0.49362742  0.36952249  0.30943327     0.82200
N42         N  0.02750944  0.37670172  0.30156195    -0.78500
C43         C  0.05721073  0.40504928  0.31783170     0.82300
N44         N  0.05392901  0.42945046  0.34109410    -0.80200
C45         C  0.41168364  0.02060207  0.36418163     0.79800
N46         N  0.41681367  0.05398484  0.34938985    -0.78500
C47         C  0.38969527  0.05420898  0.32874237     0.82200
N48         N  0.35815854  0.02144273  0.32337834    -0.78500
C49         C  0.35529872  0.49046130  0.33463772     0.82300
N50         N  0.38078919  0.48959464  0.35694187    -0.80200
C51         C  0.14076604  0.12763142  0.37367369     0.79800
N52         N  0.13272533  0.15488346  0.36621574    -0.78500
C53         C  0.15686291  0.18685664  0.34637110     0.82200
N54         N  0.18826587  0.19096470  0.33317988    -0.78500
C55         C  0.19664246  0.16412125  0.33912950     0.82300
N56         N  0.17280666  0.13222309  0.36026952    -0.80200
Zr57       Zr  0.02128836  0.03040702  0.40969235     2.17500
O58         O  0.02132143  0.04809834  0.34034692    -0.51800
O59         O  0.02050677  0.97991319  0.37120776    -0.75000
O60         O  0.08145126  0.07853325  0.38556567    -0.81800
O61         O  0.42234981  0.50267896  0.42617593    -0.83500
O62         O  0.12425036  0.08710946  0.43035581    -0.79100
O63         O  0.46999820  0.03203772  0.38130533    -0.90800
O64         O  0.01088060  0.43116548  0.41328789    -0.76700
O65         O  0.05240182  0.00540004  0.44467069    -0.86200
O66         O  0.47477329  0.47324747  0.44375833    -0.85900
O67         O  0.05878738  0.07831524  0.45623457    -0.72700
O68         O  0.48958072  0.04885997  0.45415563    -0.84800
Zr69       Zr  0.01415328  0.01463920  0.56913891     2.26400
Zr70       Zr  0.09017079  0.05264651  0.49063855     2.06300
Zr71       Zr  0.44435973  0.49257730  0.48830383     2.10000
Zr72       Zr  0.00494877  0.44861541  0.47885192     1.78800
O73         O  0.40347226  0.01384298  0.50386751    -0.93600
O74         O  0.04570137  0.42430159  0.48259608    -0.41400
O75         O  0.47570695  0.46822633  0.52413999    -0.78000
O76         O  0.04544921  0.99571842  0.52437061    -0.96700
O77         O  0.05892448  0.07095819  0.53566142    -0.90000
O78         O  0.48215330  0.03838443  0.53459023    -0.92900
C79         C  0.01643048  0.44645796  0.37889094     1.00900
C80         C  0.43690658  0.01912042  0.39211073     1.13800
C81         C  0.11437842  0.09447214  0.39716078     1.04600
O82         O  0.12737407  0.02652669  0.47274811    -0.95000
O83         O  0.11366948  0.04325751  0.55255673    -0.90800
O84         O  0.06764031  0.01558202  0.59823559    -0.83900
C85         C  0.10070310  0.02812552  0.58685049     1.11200
O86         O  0.03879610  0.14335768  0.45116472    -0.97000
Zr87       Zr  0.02617945  0.09431169  0.50060399     1.88900
O88         O  0.01311375  0.06459692  0.60763687    -0.73700
O89         O  0.14036625  0.11314498  0.51120532    -0.52900
O90         O  0.08373523  0.15202201  0.51196634    -0.97600
O91         O  0.48039479  0.11078707  0.49609723    -0.54800
O92         O  0.02041482  0.11192209  0.56630046    -0.74200
C93         C  0.01537118  0.09645886  0.60061072     0.98200
O94         O  0.00390491  0.49274118  0.63840931    -0.63000
O95         O  0.39166820  0.43358040  0.46839653    -0.57800
O96         O  0.45585540  0.46071736  0.58832963    -0.94500
O97         O  0.41209262  0.45706550  0.54781682    -0.92900
O98         O  0.44734792  0.39334214  0.46925561    -0.93300
O99         O  0.99135686  0.40053059  0.52972545    -0.92000
C100        C  0.42250308  0.44655288  0.57833641     1.17000
H101        H  0.45807420  0.45519140  0.42530381     0.33000
H102        H  0.05510817  0.48182602  0.53796047     0.43800
H103        H  0.46695729  0.04259116  0.55217109     0.37300
H104        H  0.07534373  0.10275312  0.44446612     0.33800
H105        H  0.03296765  0.40000407  0.46893041     0.25600
H106        H  0.16227704  0.11150111  0.50714061     0.31500
H107        H  0.09238891  0.14749654  0.53735989     0.37500
H108        H  0.45239030  0.37270392  0.46731419     0.31900
H109        H  0.39473769  0.41370286  0.48101810     0.30800
H110        H  0.38370230  0.50191009  0.49810989     0.32500
H111        H  0.48642971  0.13010990  0.51617154     0.31400
H112        H  0.97022302  0.39775705  0.54457718     0.35400
H113        H  0.51077657  0.47638743  0.64213755     0.28200
H114        H  0.03762222  0.04178089  0.32629881     0.32400
H115        H  0.04091218  0.16464526  0.46612695     0.35300
H116        H  0.37084926  0.43209434  0.48269230     0.27900
H117        H  0.02379476  0.51332517  0.65324745     0.40700
H118        H  0.15241190  0.04633144  0.47921451     0.30800
H119        H  0.06630958  0.44111704  0.46472608     0.38400
H120        H  0.45801109  0.08829925  0.50647540     0.28100
H121        H  0.14240667  0.13163679  0.49084183     0.30300
H122        H  0.03414021  0.07593803  0.33911920     0.30600
Zr123      Zr  0.02512113  0.03425576  0.91133130     2.17500
O124        O  0.03987669  0.05637174  0.84255101    -0.51800
O125        O  0.47524247  0.98337428  0.87207523    -0.75000
O126        O  0.07736306  0.03117566  0.88417336    -0.81800
O127        O  0.48009864  0.09055781  0.92906397    -0.83500
O128        O  0.09087046  0.49818904  0.92888481    -0.79100
O129        O  0.01905350  0.08747563  0.89059419    -0.90800
O130        O  0.43251463  0.43905104  0.91277972    -0.76700
O131        O  0.01131641  0.47605462  0.94462760    -0.86200
O132        O  0.46879831  0.01055647  0.94468006    -0.85900
O133        O  0.07432926  0.05365661  0.95731288    -0.72700
O134        O  0.03288376  0.08186101  0.95673186    -0.84800
Zr135      Zr  0.01349883  0.01950082  0.07137791     2.26400
Zr136      Zr  0.05942221  0.49308906  0.99068152     2.06300
Zr137      Zr  0.47684857  0.05717396  0.99054391     2.10000
Zr138      Zr  0.45507239  0.45585681  0.97831916     1.78800
O139        O  0.97969921  0.11496358  0.01264630    -0.93600
O140        O  0.45419920  0.39749987  0.96782605    -0.41400
O141        O  0.46447352  0.00115007  0.02521800    -0.78000
O142        O  0.50176205  0.46985829  0.02416385    -0.96700
O143        O  0.07011050  0.04450429  0.03720698    -0.90000
O144        O  0.02464865  0.07594747  0.03804175    -0.92900
C145        C  0.44412613  0.45373156  0.87842545     1.00900
C146        C  0.50247963  0.10171452  0.89964359     1.13800
C147        C  0.09722705  0.01819948  0.89668246     1.04600
O148        O  0.04971660  0.43172439  0.97427723    -0.95000
O149        O  0.05733856  0.45892365  0.05133105    -0.90800
O150        O  0.02283346  0.46823695  0.09556128    -0.83900
C151        C  0.03982674  0.45196447  0.08433046     1.11200
O152        O  0.11512578  0.15170918  0.95498603    -0.97000
Zr153      Zr  0.08052862  0.10009904  0.00265000     1.88900
O154        O  0.06380214  0.06942581  0.10974314    -0.73700
O155        O  0.12477733  0.02237335  0.00875401    -0.52900
O156        O  0.14453559  0.12025205  0.99713166    -0.97600
O157        O  0.07712145  0.15602093  0.01454740    -0.54800
O158        O  0.10418587  0.11602788  0.06800787    -0.74200
C159        C  0.09364046  0.10076877  0.10234039     0.98200
O160        O  0.49422879  0.50399614  0.13994439    -0.63000
O161        O  0.41467587  0.03437428  0.97031772    -0.57800
O162        O  0.45632325  0.01164204  0.09478237    -0.94500
O163        O  0.44146806  0.04381380  0.05118138    -0.92900
O164        O  0.39259300  0.44127393  0.97787055    -0.93300
O165        O  0.41672754  0.40968315  0.02910951    -0.92000
C166        C  0.43659543  0.02500685  0.08358048     1.17000
H167        H  0.44974851  0.00637380  0.92675442     0.33000
H168        H  0.49295719  0.44518789  0.03573524     0.43800
H169        H  0.02526942  0.09358939  0.05672321     0.37300
H170        H  0.09763529  0.06556990  0.94411637     0.33800
H171        H  0.42827590  0.37820271  0.96470836     0.25600
H172        H  0.12481525  0.52549115  0.03469332     0.31500
H173        H  0.14516753  0.09686638  0.00037803     0.37500
H174        H  0.39376086  0.46403207  0.98811334     0.31900
H175        H  0.39897494  0.01723909  0.99199119     0.30800
H176        H  0.46040477  0.11344500  0.00955746     0.32500
H177        H  0.07504791  0.15704048  0.04358890     0.31400
H178        H  0.41931449  0.42478243  0.05251447     0.35400
H179        H  0.47587914  0.47673943  0.14148706     0.28200
H180        H  0.03897564  0.03548658  0.82794461     0.32400
H181        H  0.13327180  0.17311640  0.97053988     0.35300
H182        H  0.41184990  0.05652429  0.97174161     0.27900
H183        H  0.51554978  0.50631091  0.15363258     0.40700
H184        H  0.07283589  0.43320983  0.98064942     0.30800
H185        H  0.46504751  0.40054018  0.94114101     0.38400
H186        H  0.05320342  0.14997100  0.00445544     0.30300
H187        H  0.12931675  0.00173531  0.00372879     0.30300
H188        H  0.06578325  0.07655486  0.84210854     0.30600
C189        C  0.01124326  0.11721503  0.63319578     0.79800
N190        N  0.04154484  0.14744771  0.64811101    -0.78500
C191        C  0.03845702  0.17102722  0.67310635     0.82200
N192        N  0.00497874  0.16438665  0.68188143    -0.78500
C193        C  0.47520631  0.13528738  0.66799027     0.82300
N194        N  0.47831573  0.11175026  0.64290266    -0.80200
C195        C  0.00607657  0.13486914  0.87730142     0.79800
N196        N  0.04043670  0.16354635  0.86943524    -0.78500
C197        C  0.04603129  0.19503018  0.85031617     0.82200
N198        N  0.01734451  0.19705729  0.83774587    -0.78500
C199        C  0.48416772  0.16734927  0.84270443     0.82300
N200        N  0.47861159  0.13623567  0.86338247    -0.80200
C201        C  0.35292160  0.19078081  0.69689933     0.45000
H202        H  0.35399418  0.18807217  0.66444787    -0.04000
C203        C  0.35076877  0.19720804  0.77320496     0.45100
H204        H  0.35026534  0.20016840  0.80570839    -0.04000
C205        C  0.31414626  0.17074231  0.71456425    -0.17700
C206        C  0.37349166  0.17549745  0.71989867    -0.17400
C207        C  0.36969395  0.23152493  0.70920937    -0.17800
C208        C  0.31288411  0.17144221  0.75537354    -0.17800
C209        C  0.37329250  0.18003563  0.76004034    -0.17400
C210        C  0.36733657  0.23509205  0.74945976    -0.17700
C211        C  0.18878875  0.35732632  0.78195720     0.45000
H212        H  0.19348028  0.36027044  0.81429991    -0.04000
C213        C  0.17680200  0.35062881  0.70631283     0.45100
H214        H  0.17171285  0.34762780  0.67404118    -0.04000
C215        C  0.17176703  0.37934875  0.76595713    -0.17700
C216        C  0.22340436  0.37114969  0.75707518    -0.17400
C217        C  0.16300357  0.31677567  0.76996653    -0.17800
C218        C  0.16529906  0.37618773  0.72597926    -0.17800
C219        C  0.21711239  0.36749950  0.71700946    -0.17400
C220        C  0.15615116  0.31311737  0.73010048    -0.17700
C221        C  0.12706990  0.02775198  0.61462490     0.79800
N222        N  0.15722993  0.06168297  0.62143902    -0.78500
C223        C  0.18478063  0.06355843  0.64217938     0.82200
N224        N  0.18230845  0.03181426  0.65603920    -0.78500
C225        C  0.15271371  0.49589599  0.64867871     0.82300
N226        N  0.12424432  0.49372519  0.62793485    -0.80200
C227        C  0.39488317  0.41345636  0.60072455     0.79800
N228        N  0.40137589  0.38537656  0.60939907    -0.78500
C229        C  0.37486412  0.35263674  0.62605152     0.82200
N230        N  0.34256431  0.34877306  0.63556899    -0.78500
C231        C  0.33567962  0.37664858  0.62800242     0.82300
N232        N  0.36199677  0.40908421  0.60985874    -0.80200
C233        C  0.41965322  0.43266685  0.84603597     0.79800
N234        N  0.39072995  0.43700927  0.83820597    -0.78500
C235        C  0.36372837  0.41214128  0.81455615     0.82200
N236        N  0.36527518  0.38298203  0.80068035    -0.78500
C237        C  0.39250627  0.37703332  0.80908341     0.82300
N238        N  0.41982504  0.40194302  0.83232933    -0.80200
C239        C  0.12560431  0.01936890  0.87080275     0.79800
N240        N  0.15417144  0.05262035  0.85532573    -0.78500
C241        C  0.18258830  0.05238117  0.83710669     0.82200
N242        N  0.18213015  0.01980641  0.83596624    -0.78500
C243        C  0.15495491  0.48733578  0.84852950     0.82300
N244        N  0.12607791  0.48604809  0.86608310    -0.80200
C245        C  0.28998593  0.41943767  0.76323494    -0.26800
C246        C  0.25949564  0.38508908  0.77591538    -0.14800
C247        C  0.26352792  0.36472947  0.80724430     0.35800
C248        C  0.29777152  0.37792340  0.82370795    -0.26200
C249        C  0.32887983  0.41036751  0.80851024    -0.15400
C250        C  0.32485801  0.43160625  0.77813383     0.36900
N251        N  0.35622762  0.46436497  0.76130402    -0.89700
H252        H  0.28673776  0.43639619  0.74103861     0.18000
H253        H  0.30065258  0.36065514  0.84614472     0.18000
N254        N  0.23340873  0.32941300  0.82095264    -0.88700
H255        H  0.34857594  0.47676465  0.73921497     0.35400
H256        H  0.37212756  0.45549911  0.74732299     0.40500
H257        H  0.22969796  0.33122999  0.85120553     0.40100
H258        H  0.23997500  0.30867671  0.81719662     0.35000
C259        C  0.24583682  0.33721290  0.68344431    -0.26800
C260        C  0.24403626  0.36951192  0.68813549    -0.14800
C261        C  0.26859357  0.40271575  0.66695266     0.35800
C262        C  0.29746894  0.40431945  0.64545572    -0.26200
C263        C  0.30131892  0.37267208  0.64363115    -0.15400
C264        C  0.27346515  0.33812379  0.66067315     0.36900
N265        N  0.27311888  0.30378548  0.65548303    -0.89700
H266        H  0.22611483  0.31117846  0.69845835     0.18000
H267        H  0.31754099  0.43076778  0.63145873     0.18000
N268        N  0.26466165  0.43489475  0.66766866    -0.88700
H269        H  0.24875937  0.28462240  0.64212866     0.35400
H270        H  0.27357499  0.29280160  0.68341007     0.40500
H271        H  0.26071470  0.44102559  0.63865949     0.40100
H272        H  0.28898729  0.45785749  0.67715774     0.35000
C273        C  0.13125520  0.39873194  0.79620061    -0.26800
C274        C  0.16596057  0.40391519  0.79199540    -0.14800
C275        C  0.19492003  0.43212567  0.81320814     0.35800
C276        C  0.18937829  0.45643612  0.83591274    -0.26200
C277        C  0.15546725  0.45358833  0.83731622    -0.15400
C278        C  0.12578465  0.42354121  0.81855502     0.36900
N279        N  0.09071322  0.41949653  0.82002702    -0.89700
H280        H  0.10856284  0.37601073  0.78131627     0.18000
H281        H  0.21086303  0.97822181  0.85369607     0.18000
N282        N  0.23049642  0.43757473  0.81001921    -0.88700
H283        H  0.07237129  0.39281527  0.83207576     0.35400
H284        H  0.08294358  0.42069604  0.79104170     0.40500
H285        H  0.24816771  0.46483695  0.79890505     0.40100
H286        H  0.23885359  0.43535618  0.83840518     0.35000
C287        C  0.12451841  0.42629052  0.66788216    -0.26800
C288        C  0.15514269  0.46284416  0.66395300    -0.14800
C289        C  0.18902918  0.46847555  0.67733811     0.35800
C290        C  0.19067810  0.43970950  0.69736089    -0.26200
C291        C  0.16016216  0.40407943  0.70283559    -0.15400
C292        C  0.12687572  0.39681007  0.68658904     0.36900
N293        N  0.09505012  0.36014026  0.68909023    -0.89700
H294        H  0.09855859  0.42073419  0.65722580     0.18000
H295        H  0.21646084  0.44541292  0.70885869     0.18000
N296        N  0.22326591  0.00490124  0.67120191    -0.88700
H297        H  0.08810102  0.35298927  0.71885649     0.35400
H298        H  0.10113471  0.34104900  0.67693988     0.40500
H299        H  0.23521187  0.01545938  0.69845592     0.40100
H300        H  0.24067776  0.99950812  0.65486444     0.35000
C301        C  0.40951486  0.32876769  0.66173169    -0.26800
C302        C  0.38098667  0.32187518  0.63665020    -0.14800
C303        C  0.35453155  0.28461833  0.62810875     0.35800
C304        C  0.35386275  0.25493735  0.64907868    -0.26200
C305        C  0.37893621  0.26202793  0.67905419    -0.15400
C306        C  0.40896098  0.29888243  0.68281296     0.36900
N307        N  0.43763598  0.30592094  0.70934045    -0.89700
H308        H  0.43054795  0.35750872  0.66730186     0.18000
H309        H  0.33127840  0.22670270  0.64471545     0.18000
N310        N  0.32703530  0.27697613  0.59979312    -0.88700
H311        H  0.45733976  0.33458440  0.70910759     0.35400
H312        H  0.45024628  0.29202756  0.69853929     0.40500
H313        H  0.30177004  0.26149601  0.61411561     0.40100
H314        H  0.32832692  0.26011871  0.57807889     0.35000
C315        C  0.40081044  0.28991690  0.79415869    -0.26800
C316        C  0.37267070  0.27019510  0.76717628    -0.14800
C317        C  0.35158455  0.28577293  0.75527307     0.35800
C318        C  0.36004909  0.32057460  0.76881511    -0.26200
C319        C  0.38841043  0.34111405  0.79516842    -0.15400
C320        C  0.40893215  0.32529989  0.80843479     0.36900
N321        N  0.43769637  0.34483491  0.83600692    -0.89700
H322        H  0.41687580  0.27798425  0.80349383     0.18000
H323        H  0.34341182  0.33137234  0.75807268     0.18000
N324        N  0.32081164  0.26728235  0.72994606    -0.88700
H325        H  0.45080238  0.32992842  0.84150026     0.35400
H326        H  0.42588816  0.34528927  0.86288324     0.40500
H327        H  0.31695595  0.24206838  0.72005230     0.40100
H328        H  0.32601307  0.28452674  0.70486300     0.35000
C329        C  0.21729169  0.12407414  0.67544957    -0.26800
C330        C  0.21830684  0.09900193  0.64952456    -0.14800
C331        C  0.25166599  0.10270502  0.63922470     0.35800
C332        C  0.28296679  0.12839651  0.65909129    -0.26200
C333        C  0.28161314  0.15074781  0.68886050    -0.15400
C334        C  0.24846365  0.15016770  0.69525782     0.36900
N335        N  0.24452694  0.17428346  0.72206866    -0.89700
H336        H  0.19150299  0.12129191  0.68294365     0.18000
H337        H  0.30778893  0.12854383  0.65342401     0.18000
N338        N  0.25299733  0.07844345  0.61040457    -0.88700
H339        H  0.22559043  0.15731921  0.74397765     0.35400
H340        H  0.26834210  0.19187096  0.73660147     0.40500
H341        H  0.27956608  0.08446589  0.60631968     0.40100
H342        H  0.24512486  0.08447361  0.58339018     0.35000
C343        C  0.26127776  0.10578252  0.76495269    -0.26800
C344        C  0.27996347  0.14248587  0.77893860    -0.14800
C345        C  0.26550676  0.15041235  0.81247079     0.35800
C346        C  0.23282391  0.12150874  0.83090771    -0.26200
C347        C  0.21367784  0.08505642  0.81543920    -0.15400
C348        C  0.22797694  0.07823873  0.78070810     0.36900
N349        N  0.20877900  0.04399045  0.75928071    -0.89700
H350        H  0.27215365  0.09833340  0.74021636     0.18000
H351        H  0.22277115  0.12745835  0.85747675     0.18000
N352        N  0.28342274  0.18766448  0.82744505    -0.88700
H353        H  0.18191057  0.03692356  0.75552020     0.35400
H354        H  0.20990488  0.02230120  0.77400247     0.40500
H355        H  0.28980007  0.18620996  0.85696414     0.40100
H356        H  0.26513813  0.19710551  0.82678976     0.35000
C357        C  0.39009482  0.14821810  0.81243903    -0.26800
C358        C  0.40027878  0.17862952  0.78599907    -0.14800
C359        C  0.43708401  0.20605817  0.78085843     0.35800
C360        C  0.46330753  0.20196908  0.80046232    -0.26200
C361        C  0.45389631  0.17074175  0.82573657    -0.15400
C362        C  0.41655281  0.14393104  0.83255675     0.36900
N363        N  0.40551091  0.11231833  0.85916399    -0.89700
H364        H  0.36158748  0.12718245  0.81628247     0.18000
H365        H  0.49143408  0.22331062  0.79473302     0.18000
N366        N  0.44805242  0.23782897  0.75470562    -0.88700
H367        H  0.37726489  0.09497952  0.85993232     0.35400
H368        H  0.41307348  0.12278757  0.88759891     0.40500
H369        H  0.46540066  0.23776526  0.73305744     0.40100
H370        H  0.46281644  0.26224018  0.77094703     0.35000
C371        C  0.10599714  0.22002513  0.81781121    -0.26800
C372        C  0.08263052  0.22644862  0.84067002    -0.14800
C373        C  0.09147407  0.26351789  0.84763235     0.35800
C374        C  0.12110282  0.29338083  0.82744103    -0.26200
C375        C  0.14132080  0.28656073  0.79990007    -0.15400
C376        C  0.13565457  0.24988048  0.79748304     0.36900
N377        N  0.15818258  0.24177170  0.77330897    -0.89700
H378        H  0.09961044  0.19148939  0.81321508     0.18000
H379        H  0.12595635  0.32156541  0.83014735     0.18000
N380        N  0.06867052  0.27032745  0.87293175    -0.88700
H381        H  0.16936076  0.23005190  0.79182339     0.35400
H382        H  0.18018078  0.26648064  0.76136637     0.40500
H383        H  0.07844751  0.29914870  0.87423312     0.40100
H384        H  0.07022776  0.26128544  0.90152888     0.35000
C385        C  0.39146458  0.12689365  0.71495806    -0.26800
C386        C  0.39450353  0.16041574  0.70028127    -0.14800
C387        C  0.41973550  0.18067593  0.66952540     0.35800
C388        C  0.44252626  0.16835147  0.65565064    -0.26200
C389        C  0.44177056  0.13679193  0.67269541    -0.15400
C390        C  0.41549963  0.11542601  0.70229636     0.36900
N391        N  0.41449159  0.08343381  0.72079644    -0.89700
H392        H  0.37159461  0.11077979  0.73804603     0.18000
H393        H  0.46333864  0.18562963  0.63376598     0.18000
N394        N  0.42439223  0.21537573  0.65433420    -0.88700
H395        H  0.39344855  0.07073909  0.74186405     0.35400
H396        H  0.43859783  0.09322242  0.73625122     0.40500
H397        H  0.42022136  0.21297740  0.62384908     0.40100
H398        H  0.45122421  0.23670788  0.65889973     0.35000
C399        C  0.06251964  0.23003317  0.71017851    -0.26800
C400        C  0.07017853  0.20691465  0.68724214    -0.14800
C401        C  0.10682837  0.22011648  0.67698944     0.35800
C402        C  0.13431789  0.25587466  0.68960433    -0.26200
C403        C  0.12612665  0.27814787  0.71307293    -0.15400
C404        C  0.08950454  0.26504946  0.72292398     0.36900
N405        N  0.07819453  0.28649837  0.74516026    -0.89700
H406        H  0.03488732  0.22123023  0.71849184     0.18000
H407        H  0.16240646  0.26584873  0.68230299     0.18000
N408        N  0.11621361  0.19745463  0.65419756    -0.88700
H409        H  0.06521502  0.27118911  0.77107160     0.35400
H410        H  0.09999775  0.31219630  0.75361971     0.40500
H411        H  0.11024055  0.17382968  0.67168662     0.40100
H412        H  0.14413927  0.21179611  0.64841901     0.35000
C413        C  0.14941454  0.40271501  0.17538356    -0.26800
C414        C  0.13808458  0.37127577  0.20077268    -0.14800
C415        C  0.10072233  0.34382401  0.20400485     0.35800
C416        C  0.07589228  0.34923820  0.18332001    -0.26200
C417        C  0.08645230  0.38162753  0.15959580    -0.15400
C418        C  0.12398810  0.40855536  0.15508352     0.36900
N419        N  0.13631745  0.44172188  0.13051536    -0.89700
H420        H  0.17807032  0.42365601  0.17291464     0.18000
H421        H  0.04755742  0.32765164  0.18706125     0.18000
N422        N  0.08647865  0.31000043  0.22805724    -0.88700
H423        H  0.16463392  0.45709093  0.12844128     0.35400
H424        H  0.12896639  0.45896710  0.14477374     0.40500
H425        H  0.10662778  0.30761644  0.24207356     0.40100
H426        H  0.07017478  0.31108632  0.25032992     0.35000
C427        C  0.11491698  0.36212261  0.31381173    -0.26800
C428        C  0.14214945  0.38662295  0.28706646    -0.14800
C429        C  0.14586732  0.42196431  0.27734341     0.35800
C430        C  0.11942140  0.42956656  0.29080948    -0.26200
C431        C  0.09043353  0.40340119  0.31485388    -0.15400
C432        C  0.08896643  0.37004535  0.32747219     0.36900
N433        N  0.05954735  0.34288973  0.35217704    -0.89700
H434        H  0.11210491  0.33532704  0.32187785     0.18000
H435        H  0.12048001  0.45505330  0.28069405     0.18000
N436        N  0.17542225  0.45025981  0.25337115    -0.88700
H437        H  0.07046785  0.33816670  0.37763901     0.35400
H438        H  0.04581381  0.31764938  0.33703624     0.40500
H439        H  0.19455227  0.44263336  0.24755703     0.40100
H440        H  0.18891792  0.47459556  0.26998144     0.35000
C441        C  0.30366930  0.41472192  0.15630003    -0.26800
C442        C  0.32785548  0.45031453  0.17140905    -0.14800
C443        C  0.31925551  0.45984172  0.20805959     0.35800
C444        C  0.28449163  0.43798446  0.22377990    -0.26200
C445        C  0.26030866  0.40175220  0.21043861    -0.15400
C446        C  0.27052579  0.38976052  0.17641957     0.36900
N447        N  0.24706687  0.35309334  0.16133397    -0.89700
H448        H  0.30946733  0.40710610  0.12796298     0.18000
H449        H  0.27681777  0.44979138  0.24727500     0.18000
N450        N  0.34455504  0.49316999  0.22865951    -0.88700
H451        H  0.26144714  0.33912652  0.16039157     0.35400
H452        H  0.24054661  0.35626975  0.13233985     0.40500
H453        H  0.37047632  0.50618320  0.21580756     0.40100
H454        H  0.33546881  0.51214136  0.22735387     0.35000
C455        C  0.28361316  0.39561687  0.29800907    -0.26800
C456        C  0.25321089  0.39965377  0.30074612    -0.14800
C457        C  0.25532493  0.42918837  0.32249864     0.35800
C458        C  0.28892994  0.45739503  0.33575144    -0.26200
C459        C  0.32027092  0.45618791  0.32823323    -0.15400
C460        C  0.31755203  0.42408227  0.31130646     0.36900
N461        N  0.34938673  0.42179867  0.30507429    -0.89700
H462        H  0.28158668  0.37230886  0.28192869     0.18000
H463        H  0.29087459  0.48154558  0.34990523     0.18000
N464        N  0.22421815  0.43269828  0.32773190    -0.88700
H465        H  0.34250175  0.39626147  0.29230180     0.35400
H466        H  0.36613486  0.44301382  0.28456348     0.40500
H467        H  0.22999480  0.45838658  0.31497167     0.40100
H468        H  0.21994684  0.43335662  0.35806729     0.35000
C469        C  0.17796417  0.25372549  0.35139108    -0.26800
C470        C  0.15089243  0.21822170  0.33919226    -0.14800
C471        C  0.12455697  0.21533690  0.31274379     0.35800
C472        C  0.12798141  0.24827942  0.29587894    -0.26200
C473        C  0.15834935  0.28382977  0.30370869    -0.15400
C474        C  0.18199318  0.28649849  0.33396514     0.36900
N475        N  0.21205493  0.32207681  0.34488666    -0.89700
H476        H  0.19816791  0.25605288  0.37207095     0.18000
H477        H  0.10844859  0.24586536  0.27428911     0.18000
N478        N  0.09617361  0.17919913  0.30056350    -0.88700
H479        H  0.23588409  0.32176731  0.34002647     0.35400
H480        H  0.20973237  0.32515915  0.37515937     0.40500
H481        H  0.09830236  0.17800546  0.26989035     0.40100
H482        H  0.07138847  0.17702026  0.30699198     0.35000
C483        C  0.39896470  0.28472797  0.28798683    -0.26800
C484        C  0.40848040  0.26407496  0.26362212    -0.14800
C485        C  0.44515886  0.27756815  0.25519521     0.35800
C486        C  0.47157268  0.31240149  0.26932776    -0.26200
C487        C  0.46270441  0.33416368  0.29323446    -0.15400
C488        C  0.42569246  0.32002346  0.30249012     0.36900
N489        N  0.41521594  0.34130996  0.32612739    -0.89700
H490        H  0.37053131  0.27402120  0.29423638     0.18000
H491        H  0.49954049  0.32217170  0.26165449     0.18000
N492        N  0.45543191  0.25573844  0.23206760    -0.88700
H493        H  0.38714138  0.32639588  0.33094267     0.35400
H494        H  0.42131550  0.36552938  0.30968560     0.40500
H495        H  0.44832722  0.23124005  0.24848607     0.40100
H496        H  0.48353485  0.26995768  0.22762774     0.35000
C497        C  0.43072579  0.32647998  0.15938316    -0.26800
C498        C  0.45616316  0.32306017  0.13673719    -0.14800
C499        C  0.44943313  0.28663685  0.12871848     0.35800
C500        C  0.42087291  0.25533655  0.14849288    -0.26200
C501        C  0.39859748  0.25930559  0.17566942    -0.15400
C502        C  0.40183460  0.29475960  0.17879852     0.36900
N503        N  0.37655173  0.29884108  0.20252258    -0.89700
H504        H  0.43499342  0.35409973  0.16484222     0.18000
H505        H  0.41771741  0.22810000  0.14452060     0.18000
N506        N  0.47209361  0.28059104  0.10227933    -0.88700
H507        H  0.39116642  0.31970311  0.22302930     0.35400
H508        H  0.36361232  0.30862122  0.18403654     0.40500
H509        H  0.49071196  0.30544624  0.08719376     0.40100
H510        H  0.45542813  0.26256473  0.08042112     0.35000
C511        C  0.28336904  0.20287644  0.27632299    -0.26800
C512        C  0.29025049  0.17363351  0.27978817    -0.14800
C513        C  0.26857305  0.14276948  0.30559710     0.35800
C514        C  0.23878366  0.14080098  0.32540232    -0.26200
C515        C  0.23052109  0.16928512  0.32047396    -0.15400
C516        C  0.25436346  0.20148739  0.29624882     0.36900
N517        N  0.25024721  0.23337244  0.29049361    -0.89700
H518        H  0.30040950  0.22690596  0.25694479     0.18000
H519        H  0.22159009  0.11646050  0.34421480     0.18000
N520        N  0.27656568  0.11350824  0.31165922    -0.88700
H521        H  0.25091924  0.24497304  0.31784157     0.35400
H522        H  0.22594797  0.22518404  0.27610359     0.40500
H523        H  0.27226562  0.09937036  0.28527743     0.40100
H524        H  0.25873830  0.09356843  0.33260329     0.35000
C525        C  0.41461085  0.11044356  0.28330623    -0.26800
C526        C  0.39154292  0.08930403  0.31504105    -0.14800
C527        C  0.36509593  0.09751949  0.32792797     0.35800
C528        C  0.36055960  0.12423930  0.30695557    -0.26200
C529        C  0.38094035  0.14269268  0.27267780    -0.15400
C530        C  0.40982681  0.13728984  0.26235192     0.36900
N531        N  0.43486034  0.15935163  0.23120648    -0.89700
H532        H  0.43526007  0.10479574  0.27341666     0.18000
H533        H  0.34005102  0.12971050  0.31711157     0.18000
N534        N  0.34199166  0.07898999  0.36191460    -0.88700
H535        H  0.46057577  0.17499715  0.24349164     0.35400
H536        H  0.43592573  0.14090277  0.21144289     0.40500
H537        H  0.34937241  0.06198317  0.37731560     0.40100
H538        H  0.31560279  0.06160876  0.35187065     0.35000
C539        C  0.39283958  0.14347175  0.15587482    -0.26800
C540        C  0.36523768  0.13394422  0.18413058    -0.14800
C541        C  0.33699484  0.09612897  0.18896163     0.35800
C542        C  0.33838643  0.06882456  0.16753885    -0.26200
C543        C  0.36830223  0.07729997  0.14307144    -0.15400
C544        C  0.39518600  0.11541233  0.13573627     0.36900
N545        N  0.42527651  0.12549943  0.10940015    -0.89700
H546        H  0.41407494  0.17255210  0.15165626     0.18000
H547        H  0.31634076  0.04007276  0.17233632     0.18000
N548        N  0.30656914  0.08388229  0.21550969    -0.88700
H549        H  0.44295504  0.15466867  0.10824069     0.35400
H550        H  0.41493513  0.11778666  0.08098389     0.40500
H551        H  0.30723634  0.10615495  0.22962679     0.40100
H552        H  0.30821649  0.06691142  0.23766018     0.35000
C553        C  0.24818146  0.12576366  0.20566572    -0.26800
C554        C  0.27928979  0.15960055  0.19277759    -0.14800
C555        C  0.27580584  0.18149052  0.16267616     0.35800
C556        C  0.24117390  0.17081259  0.14876116    -0.26200
C557        C  0.20988955  0.13938340  0.16498098    -0.15400
C558        C  0.21340488  0.11567368  0.19240532     0.36900
N559        N  0.18156814  0.08313945  0.20881281    -0.89700
H560        H  0.25074833  0.10805401  0.22753545     0.18000
H561        H  0.23823215  0.18919168  0.12789322     0.18000
N562        N  0.30692886  0.21599147  0.14848985    -0.88700
H563        H  0.18876299  0.06901829  0.22931068     0.35400
H564        H  0.16861940  0.06465759  0.18576066     0.40500
H565        H  0.31590230  0.23466940  0.17183188     0.40100
H566        H  0.29977282  0.22835813  0.12587679     0.35000
C567        C  0.13356860  0.25621511  0.19830216    -0.26800
C568        C  0.16658666  0.28101489  0.21612277    -0.14800
C569        C  0.19365413  0.27183304  0.21875919     0.35800
C570        C  0.18666956  0.23727508  0.20474481    -0.26200
C571        C  0.15308139  0.21127554  0.18796021    -0.15400
C572        C  0.12621629  0.22110517  0.18470003     0.36900
N573        N  0.09151850  0.19550075  0.16821187    -0.89700
H574        H  0.11290201  0.26361248  0.19654676     0.18000
H575        H  0.20802339  0.23092508  0.20694427     0.18000
N576        N  0.22842755  0.29797420  0.23498234    -0.88700
H577        H  0.07540471  0.20757013  0.16702268     0.35400
H578        H  0.07827826  0.17222037  0.18762448     0.40500
H579        H  0.22479186  0.30031157  0.26506731     0.40100
H580        H  0.24600934  0.28772827  0.23301614     0.35000
C581        C  0.11925353  0.61907753  0.13385946     0.79800
N582        N  0.14878166  0.61525291  0.13826617    -0.78500
C583        C  0.17781731  0.64101536  0.15892450     0.82200
N584        N  0.17747954  0.67051861  0.17415667    -0.78500
C585        C  0.14909099  0.67551950  0.16981507     0.82300
N586        N  0.11999820  0.64985233  0.14887257    -0.80200
C587        C  0.35974301  0.69345148  0.26596116     0.45000
H588        H  0.36323004  0.69644898  0.29845322    -0.04000
C589        C  0.35171139  0.68785935  0.18961660     0.45100
H590        H  0.34846235  0.68520077  0.15705807    -0.04000
C591        C  0.38137380  0.73116892  0.24302068    -0.17700
C592        C  0.37233342  0.66811457  0.24778041    -0.17400
C593        C  0.32015024  0.67682708  0.25282910    -0.17800
C594        C  0.37703183  0.72837843  0.20277145    -0.17800
C595        C  0.36717057  0.66488198  0.20748049    -0.17400
C596        C  0.31598174  0.67406082  0.21241437    -0.17700
C597        C  0.18191371  0.85485043  0.29111735     0.45000
H598        H  0.17927848  0.85630322  0.32358935    -0.04000
C599        C  0.18758018  0.85183380  0.21464587     0.45100
H600        H  0.18933354  0.85035205  0.18206188    -0.04000
C601        C  0.16716214  0.81467012  0.27673794    -0.17700
C602        C  0.16251167  0.87106030  0.26760544    -0.17400
C603        C  0.22100542  0.87698063  0.27548951    -0.17800
C604        C  0.17042312  0.81329305  0.23628927    -0.17800
C605        C  0.16410736  0.86796748  0.22742933    -0.17400
C606        C  0.22456782  0.87641953  0.23477915    -0.17700
C607        C  0.03645496  0.92237549  0.10938511     0.79800
N608        N  0.50021202  0.88989686  0.11293433    -0.78500
C609        C  0.49438272  0.85764484  0.13073138     0.82200
N610        N  0.02393149  0.85863859  0.14653477    -0.78500
C611        C  0.05867606  0.88704718  0.14071621     0.82300
N612        N  0.06499788  0.91900842  0.12118450    -0.80200
C613        C  0.40518691  0.52025013  0.10655113     0.79800
N614        N  0.39983578  0.54970129  0.10965422    -0.78500
C615        C  0.37067141  0.54547610  0.12964233     0.82200
N616        N  0.34699706  0.51155870  0.14570024    -0.78500
C617        C  0.35320939  0.98186343  0.14736949     0.82300
N618        N  0.38272430  0.98561281  0.12763263    -0.80200
C619        C  0.02200163  0.92707746  0.34650673     0.79800
N620        N  0.49112626  0.89518303  0.33103382    -0.78500
C621        C  0.49504451  0.87065898  0.30827002     0.82200
N622        N  0.02889929  0.87852454  0.30088079    -0.78500
C623        C  0.05866792  0.90712703  0.31696946     0.82300
N624        N  0.05531940  0.93138417  0.34034779    -0.80200
C625        C  0.41220543  0.52187398  0.36466569     0.79800
N626        N  0.41795686  0.55566269  0.35033005    -0.78500
C627        C  0.39187866  0.55645784  0.32813973     0.82200
N628        N  0.36084710  0.52381764  0.32067097    -0.78500
C629        C  0.35319072  0.98844760  0.33772083     0.82300
N630        N  0.37979807  0.98812327  0.35839836    -0.80200
C631        C  0.14107932  0.62577461  0.37346769     0.79800
N632        N  0.13303010  0.65300399  0.36587878    -0.78500
C633        C  0.15753833  0.68543606  0.34700587     0.82200
N634        N  0.18935934  0.69000356  0.33474768    -0.78500
C635        C  0.19778828  0.66316206  0.34048478     0.82300
N636        N  0.17356337  0.63078614  0.36083243    -0.80200
Zr637      Zr  0.02087429  0.52940783  0.40979156     2.17500
O638        O  0.02073574  0.54751783  0.34065444    -0.51800
O639        O  0.01992776  0.47874516  0.37140245    -0.75000
O640        O  0.08141344  0.57688383  0.38537454    -0.81800
O641        O  0.42319396  0.00343043  0.42587419    -0.83500
O642        O  0.12404050  0.58519119  0.43029111    -0.79100
O643        O  0.46991690  0.53270829  0.38274596    -0.90800
O644        O  0.01316996  0.93293689  0.41299973    -0.76700
O645        O  0.05136457  0.50375285  0.44497748    -0.86200
O646        O  0.47570151  0.97421911  0.44222292    -0.85900
O647        O  0.05880260  0.57739420  0.45619207    -0.72700
O648        O  0.48897668  0.54808587  0.45375655    -0.84800
Zr649      Zr  0.01393533  0.51435343  0.56932882     2.26400
Zr650      Zr  0.08961864  0.55103703  0.49063099     2.06300
Zr651      Zr  0.44485416  0.99236960  0.48758259     2.10000
Zr652      Zr  0.00645430  0.94991065  0.47839969     1.78800
O653        O  0.40847318  0.51997149  0.50716993    -0.93600
O654        O  0.05068488  0.93025454  0.48439238    -0.41400
O655        O  0.47619963  0.96777455  0.52278769    -0.78000
O656        O  0.04452448  0.49452571  0.52452228    -0.96700
O657        O  0.05898791  0.57022214  0.53547611    -0.90000
O658        O  0.48226972  0.53905096  0.53450395    -0.92900
C659        C  0.01787643  0.94801410  0.37859291     1.00900
C660        C  0.43665894  0.51944941  0.39295420     1.13800
C661        C  0.11437678  0.59257112  0.39694928     1.04600
O662        O  0.12589499  0.52327513  0.47495373    -0.95000
O663        O  0.11292456  0.54171116  0.55254762    -0.90800
O664        O  0.06715059  0.51508999  0.59853709    -0.83900
C665        C  0.10001407  0.52703175  0.58696483     1.11200
O666        O  0.03991227  0.64310693  0.45112992    -0.97000
Zr667      Zr  0.02642944  0.59388172  0.50062197     1.88900
O668        O  0.01288327  0.56450286  0.60782242    -0.73700
O669        O  0.14056368  0.61031316  0.51264909    -0.52900
O670        O  0.08244871  0.65206808  0.51507776    -0.97600
O671        O  0.47933051  0.60985225  0.49369312    -0.54800
O672        O  0.02143113  0.61214988  0.56622341    -0.74200
C673        C  0.01592831  0.59674852  0.60060690     0.98200
O674        O  0.00469918  0.99477653  0.63875115    -0.63000
O675        O  0.39535335  0.93127602  0.46752199    -0.57800
O676        O  0.45583107  0.95932329  0.58671491    -0.94500
O677        O  0.41235613  0.95798504  0.54764780    -0.92900
O678        O  0.44814288  0.89272247  0.47164436    -0.93300
O679        O  0.99140222  0.89992734  0.52741387    -0.92000
C680        C  0.42255663  0.94615103  0.57727555     1.17000
H681        H  0.45916526  0.95647145  0.42343938     0.33000
H682        H  0.05619301  0.98314829  0.53767704     0.43800
H683        H  0.46729131  0.54359950  0.55201901     0.37300
H684        H  0.07555201  0.60163766  0.44418935     0.33800
H685        H  0.03997006  0.90621935  0.47031523     0.25600
H686        H  0.16221832  0.60857087  0.50703183     0.31500
H687        H  0.10002127  0.65448752  0.49456684     0.37500
H688        H  0.45366916  0.87391991  0.46174281     0.31900
H689        H  0.39693245  0.91277395  0.48498488     0.30800
H690        H  0.37901365  0.99095197  0.50320176     0.32500
H691        H  0.46641391  0.60280034  0.51957163     0.31400
H692        H  0.97028847  0.89706649  0.54238818     0.35400
H693        H  0.50895094  0.97124887  0.63896417     0.28200
H694        H  0.03687185  0.54112119  0.32637305     0.32400
H695        H  0.04035572  0.66370601  0.46586802     0.35300
H696        H  0.37304076  0.93044196  0.47650044     0.27900
H697        H  0.02473744  0.01577303  0.65302509     0.40700
H698        H  0.11927008  0.51429673  0.44763920     0.30800
H699        H  0.07138651  0.94838574  0.46734696     0.38400
H700        H  0.46171189  0.59124306  0.47523277     0.28100
H701        H  0.14240591  0.62960152  0.49352657     0.30300
H702        H  0.03373597  0.57536900  0.33965472     0.30600
Zr703      Zr  0.02549052  0.53304534  0.91069356     2.17500
O704        O  0.03900976  0.55338528  0.84131375    -0.51800
O705        O  0.47456195  0.48466886  0.87134942    -0.75000
O706        O  0.07817016  0.53116227  0.88394077    -0.81800
O707        O  0.48021476  0.59184789  0.92837302    -0.83500
O708        O  0.09424058  0.00345096  0.93125382    -0.79100
O709        O  0.02225682  0.58784781  0.89009958    -0.90800
O710        O  0.43383878  0.93742456  0.91369442    -0.76700
O711        O  0.01306746  0.97809737  0.94568985    -0.86200
O712        O  0.46852334  0.51222895  0.94403542    -0.85900
O713        O  0.07426874  0.55057109  0.95664700    -0.72700
O714        O  0.03463299  0.58117461  0.95587246    -0.84800
Zr715      Zr  0.01280245  0.51792087  0.07055226     2.26400
Zr716      Zr  0.06136446  0.99681689  0.99218356     2.06300
Zr717      Zr  0.47751238  0.55910987  0.99001660     2.10000
Zr718      Zr  0.45644987  0.95473183  0.97926268     1.78800
O719        O  0.99001212  0.61978676  0.01073499    -0.93600
O720        O  0.45280501  0.89524886  0.96694762    -0.41400
O721        O  0.46405613  0.50254529  0.02427967    -0.78000
O722        O  0.50375095  0.97008106  0.02463532    -0.96700
O723        O  0.06915378  0.54071526  0.03641106    -0.90000
O724        O  0.02596719  0.57508788  0.03722939    -0.92900
C725        C  0.44512668  0.95211330  0.87926684     1.00900
C726        C  0.50250973  0.60295898  0.89891231     1.13800
C727        C  0.09613061  0.51578705  0.89554360     1.04600
O728        O  0.05044203  0.93491100  0.97647594    -0.95000
O729        O  0.06016214  0.96324425  0.05329450    -0.90800
O730        O  0.02401892  0.97045027  0.09703411    -0.83900
C731        C  0.04198398  0.95518931  0.08599123     1.11200
O732        O  0.11980734  0.64703910  0.95422640    -0.97000
Zr733      Zr  0.08168837  0.59711363  0.00213867     1.88900
O734        O  0.06300985  0.56741882  0.10991022    -0.73700
O735        O  0.12336879  0.52114824  0.00591764    -0.52900
O736        O  0.14507356  0.61456138  0.99834399    -0.97600
O737        O  0.08068023  0.65466083  0.01140397    -0.54800
O738        O  0.10461274  0.61249934  0.06772452    -0.74200
C739        C  0.09350904  0.59811292  0.10226593     0.98200
O740        O  0.49561286  0.00378876  0.14044585    -0.63000
O741        O  0.41523224  0.54019086  0.97401139    -0.57800
O742        O  0.45546409  0.51284731  0.09340794    -0.94500
O743        O  0.44051608  0.54453163  0.04920131    -0.92900
O744        O  0.39450494  0.94179463  0.98271906    -0.93300
O745        O  0.42123796  0.90696216  0.03014428    -0.92000
C746        C  0.43564001  0.52596543  0.08171545     1.17000
H747        H  0.44967924  0.50841968  0.92598740     0.33000
H748        H  0.49534984  0.94544007  0.03608094     0.43800
H749        H  0.02720936  0.59297519  0.05593634     0.37300
H750        H  0.09788187  0.56219890  0.94415707     0.33800
H751        H  0.42778311  0.87835558  0.95774512     0.25600
H752        H  0.12564546  0.02456237  0.03787271     0.31500
H753        H  0.14719899  0.59783246  0.01797263     0.37500
H754        H  0.39163892  0.94885655  0.00968429     0.31900
H755        H  0.41486855  0.56384289  0.97361872     0.30800
H756        H  0.46522200  0.61742901  0.01285588     0.32500
H757        H  0.07437040  0.65442987  0.03960740     0.31400
H758        H  0.42597288  0.92121613  0.05474840     0.35400
H759        H  0.47921470  0.97612426  0.14248610     0.28200
H760        H  0.03933689  0.53277911  0.82746485     0.32400
H761        H  0.13730754  0.66872355  0.96992129     0.35300
H762        H  0.41215776  0.53269919  0.94604579     0.27900
H763        H  0.51777762  0.00870712  0.15436542     0.40700
H764        H  0.07385807  0.93651511  0.98128138     0.30800
H765        H  0.46829513  0.90021301  0.94320034     0.38400
H766        H  0.05926984  0.65088167  0.99671084     0.30300
H767        H  0.12828760  0.50051410  0.00296601     0.30300
H768        H  0.06449617  0.57458858  0.84042400     0.30600
C769        C  0.01215864  0.61813287  0.63289686     0.79800
N770        N  0.04258779  0.64879958  0.64713925    -0.78500
C771        C  0.03968987  0.67291142  0.67157669     0.82200
N772        N  0.00624819  0.66642828  0.68030992    -0.78500
C773        C  0.47520959  0.63611251  0.66573856     0.82300
N774        N  0.47853422  0.61265781  0.64085359    -0.80200
C775        C  0.00766900  0.63382003  0.87502329     0.79800
N776        N  0.04197193  0.66236226  0.86627308    -0.78500
C777        C  0.04733783  0.69406087  0.84772967     0.82200
N778        N  0.01842914  0.69639302  0.83671344    -0.78500
C779        C  0.48423168  0.66925993  0.84328040     0.82300
N780        N  0.47873295  0.63796060  0.86349892    -0.80200
C781        C  0.35181959  0.68957436  0.69552431     0.45000
H782        H  0.35243768  0.68690976  0.66301169    -0.04000
C783        C  0.35022641  0.69589062  0.77189698     0.45100
H784        H  0.35009965  0.69882437  0.80442418    -0.04000
C785        C  0.31329074  0.66932705  0.71354255    -0.17700
C786        C  0.37265469  0.67436032  0.71811279    -0.17400
C787        C  0.36844845  0.73022954  0.70802906    -0.17800
C788        C  0.31225196  0.67000495  0.75438842    -0.17800
C789        C  0.37287443  0.67905891  0.75825082    -0.17400
C790        C  0.36640432  0.73370506  0.74829155    -0.17700
C791        C  0.19015414  0.85892810  0.78229867     0.45000
H792        H  0.19485241  0.86173393  0.81464833    -0.04000
C793        C  0.17816329  0.85222670  0.70669374     0.45100
H794        H  0.17310102  0.84926084  0.67441666    -0.04000
C795        C  0.17255465  0.88051648  0.76646455    -0.17700
C796        C  0.22496888  0.87342943  0.75738549    -0.17400
C797        C  0.16476414  0.81820436  0.77017929    -0.17800
C798        C  0.16626841  0.87747709  0.72643840    -0.17800
C799        C  0.21855014  0.86947258  0.71737474    -0.17400
C800        C  0.15780229  0.81456302  0.73031459    -0.17700
C801        C  0.12625881  0.52648379  0.61462243     0.79800
N802        N  0.15657560  0.56031221  0.62121765    -0.78500
C803        C  0.18419653  0.56196115  0.64154124     0.82200
N804        N  0.18158647  0.53017395  0.65533378    -0.78500
C805        C  0.15354650  0.99741203  0.64925948     0.82300
N806        N  0.12514478  0.99509344  0.62819689    -0.80200
C807        C  0.39486171  0.91305880  0.59962909     0.79800
N808        N  0.40155144  0.88523232  0.60910356    -0.78500
C809        C  0.37535093  0.85299655  0.62691398     0.82200
N810        N  0.34321365  0.84938417  0.63667031    -0.78500
C811        C  0.33615016  0.87696988  0.62822026     0.82300
N812        N  0.36212598  0.90890897  0.60902672    -0.80200
C813        C  0.42036391  0.93099855  0.84701730     0.79800
N814        N  0.39170891  0.93583840  0.83933496    -0.78500
C815        C  0.36434394  0.91108736  0.81597343     0.82200
N816        N  0.36538861  0.88164633  0.80205498    -0.78500
C817        C  0.39235297  0.87521827  0.81018452     0.82300
N818        N  0.41999243  0.89995859  0.83327978    -0.80200
C819        C  0.12531064  0.51819125  0.87027132     0.79800
N820        N  0.15341667  0.55193401  0.85518214    -0.78500
C821        C  0.18240119  0.55270608  0.83718599     0.82200
N822        N  0.18281109  0.52059545  0.83553838    -0.78500
C823        C  0.15403869  0.98701403  0.84961242     0.82300
N824        N  0.12556586  0.98666715  0.86715522    -0.80200
C825        C  0.29190367  0.92170552  0.76558371    -0.26800
C826        C  0.26102531  0.88670309  0.77631974    -0.14800
C827        C  0.26442445  0.86463041  0.80613465     0.35800
C828        C  0.29823877  0.87661462  0.82303294    -0.26200
C829        C  0.32968671  0.90987856  0.81004650    -0.15400
C830        C  0.32638137  0.93322135  0.78167264     0.36900
N831        N  0.35805502  0.96773811  0.76844583    -0.89700
H832        H  0.28923745  0.93976509  0.74422602     0.18000
H833        H  0.30053324  0.85792773  0.84408501     0.18000
N834        N  0.23401462  0.82868670  0.81769756    -0.88700
H835        H  0.35105660  0.98166231  0.74747636     0.35400
H836        H  0.37534816  0.96094115  0.75402058     0.40500
H837        H  0.22974842  0.82864834  0.84814216     0.40100
H838        H  0.24054520  0.80817892  0.81214842     0.35000
C839        C  0.24659012  0.83836933  0.68394259    -0.26800
C840        C  0.24527577  0.87096108  0.68865816    -0.14800
C841        C  0.27001338  0.90401463  0.66749136     0.35800
C842        C  0.29859346  0.90521667  0.64583694    -0.26200
C843        C  0.30201611  0.87332017  0.64397677    -0.15400
C844        C  0.27404017  0.83891722  0.66116132     0.36900
N845        N  0.27341224  0.80440727  0.65611174    -0.89700
H846        H  0.22669532  0.81244285  0.69899277     0.18000
H847        H  0.31879459  0.93155745  0.63176558     0.18000
N848        N  0.26644431  0.93640605  0.66827496    -0.88700
H849        H  0.24903206  0.78536042  0.64271585     0.35400
H850        H  0.27367446  0.79339881  0.68409215     0.40500
H851        H  0.26276591  0.94277464  0.63925122     0.40100
H852        H  0.29079183  0.95911274  0.67807451     0.35000
C853        C  0.13115210  0.89922338  0.79639959    -0.26800
C854        C  0.16600123  0.90454574  0.79274057    -0.14800
C855        C  0.19438137  0.93218936  0.81506184     0.35800
C856        C  0.18813081  0.95553944  0.83862589    -0.26200
C857        C  0.15425087  0.95282534  0.83932472    -0.15400
C858        C  0.12506335  0.92328199  0.81947775     0.36900
N859        N  0.08989207  0.91900240  0.82074405    -0.89700
H860        H  0.10882645  0.87694395  0.78065577     0.18000
H861        H  0.21245413  0.47948624  0.85016985     0.18000
N862        N  0.23021031  0.93828073  0.81196115    -0.88700
H863        H  0.07145050  0.89191243  0.83176328     0.35400
H864        H  0.08261906  0.92116026  0.79178999     0.40500
H865        H  0.24775640  0.96596178  0.80190372     0.40100
H866        H  0.23823915  0.93520391  0.84022256     0.35000
C867        C  0.12541089  0.92766372  0.66853668    -0.26800
C868        C  0.15596287  0.96434076  0.66476636    -0.14800
C869        C  0.18984455  0.97001574  0.67819743     0.35800
C870        C  0.19156230  0.94123052  0.69817559    -0.26200
C871        C  0.16114058  0.90545505  0.70336723    -0.15400
C872        C  0.12790553  0.89809786  0.68691698     0.36900
N873        N  0.09636123  0.86116650  0.68862736    -0.89700
H874        H  0.09945768  0.92201155  0.65775661     0.18000
H875        H  0.21736015  0.94697766  0.70967976     0.18000
N876        N  0.22248826  0.50335817  0.67050519    -0.88700
H877        H  0.08936677  0.85316439  0.71824457     0.35400
H878        H  0.10287182  0.84265753  0.67578424     0.40500
H879        H  0.23425839  0.51392222  0.69783193     0.40100
H880        H  0.24000651  0.49799432  0.65433625     0.35000
C881        C  0.40952925  0.82787123  0.66176936    -0.26800
C882        C  0.38101393  0.82185590  0.63709154    -0.14800
C883        C  0.35404098  0.78491482  0.62816862     0.35800
C884        C  0.35248128  0.75467445  0.64889036    -0.26200
C885        C  0.37775450  0.76094587  0.67829855    -0.15400
C886        C  0.40850691  0.79730852  0.68190524     0.36900
N887        N  0.43761592  0.80305358  0.70708715    -0.89700
H888        H  0.43108446  0.85634696  0.66747592     0.18000
H889        H  0.32944708  0.72669761  0.64451973     0.18000
N890        N  0.32712893  0.77823883  0.59942957    -0.88700
H891        H  0.45810923  0.83143361  0.70656340     0.35400
H892        H  0.44896576  0.78835117  0.69512266     0.40500
H893        H  0.30162452  0.76304074  0.61327616     0.40100
H894        H  0.32836081  0.76145642  0.57758292     0.35000
C895        C  0.40074753  0.78847896  0.79257465    -0.26800
C896        C  0.37200462  0.76872894  0.76633912    -0.14800
C897        C  0.35024868  0.78391533  0.75594472     0.35800
C898        C  0.35859660  0.81842298  0.77036581    -0.26200
C899        C  0.38774030  0.83914723  0.79585778    -0.15400
C900        C  0.40880667  0.82353270  0.80769489     0.36900
N901        N  0.43790717  0.84281561  0.83492805    -0.89700
H902        H  0.41722356  0.77672409  0.80082308     0.18000
H903        H  0.34133532  0.82888897  0.76091195     0.18000
N904        N  0.31899119  0.76529825  0.73128684    -0.88700
H905        H  0.45124079  0.82800466  0.83949464     0.35400
H906        H  0.42637116  0.84272132  0.86220642     0.40500
H907        H  0.31564589  0.74063866  0.72038530     0.40100
H908        H  0.32348518  0.78285484  0.70663299     0.35000
C909        C  0.21701304  0.62311229  0.67314087    -0.26800
C910        C  0.21791679  0.59715969  0.64851011    -0.14800
C911        C  0.25106463  0.59975784  0.63961574     0.35800
C912        C  0.28228183  0.62579318  0.65924469    -0.26200
C913        C  0.28092862  0.64909161  0.68784790    -0.15400
C914        C  0.24793272  0.64897402  0.69337417     0.36900
N915        N  0.24379476  0.67302139  0.72009378    -0.89700
H916        H  0.19131508  0.62090051  0.67975378     0.18000
H917        H  0.30699135  0.62543780  0.65458258     0.18000
N918        N  0.25217115  0.57397970  0.61269740    -0.88700
H919        H  0.22423248  0.65588753  0.74145896     0.35400
H920        H  0.26724744  0.68994467  0.73542634     0.40500
H921        H  0.27852316  0.57904967  0.60987141     0.40100
H922        H  0.24504722  0.57922852  0.58483733     0.35000
C923        C  0.25907131  0.60527425  0.76371325    -0.26800
C924        C  0.27926427  0.64166881  0.77826848    -0.14800
C925        C  0.26628941  0.64985085  0.81288581     0.35800
C926        C  0.23348715  0.62148802  0.83164444    -0.26200
C927        C  0.21266402  0.58561458  0.81514764    -0.15400
C928        C  0.22535076  0.57881830  0.77928386     0.36900
N929        N  0.20413512  0.54559788  0.75676721    -0.89700
H930        H  0.26900140  0.59719720  0.73866746     0.18000
H931        H  0.22475245  0.62730192  0.85926293     0.18000
N932        N  0.28605336  0.68663707  0.82894368    -0.88700
H933        H  0.17768296  0.54023978  0.75445692     0.35400
H934        H  0.20410547  0.52261007  0.76982646     0.40500
H935        H  0.29281777  0.68395580  0.85797811     0.40100
H936        H  0.26887566  0.69743707  0.82988909     0.35000
C937        C  0.39019004  0.64871312  0.81146931    -0.26800
C938        C  0.40024550  0.67823982  0.78393315    -0.14800
C939        C  0.43699752  0.70577665  0.77847676     0.35800
C940        C  0.46331362  0.70264180  0.79913164    -0.26200
C941        C  0.45398456  0.67221284  0.82561625    -0.15400
C942        C  0.41669729  0.64528923  0.83247543     0.36900
N943        N  0.40575774  0.61436886  0.86002688    -0.89700
H944        H  0.36170805  0.62770559  0.81560443     0.18000
H945        H  0.49141863  0.72397100  0.79323387     0.18000
N946        N  0.44779417  0.73673403  0.75118630    -0.88700
H947        H  0.37755206  0.59665500  0.86048464     0.35400
H948        H  0.41288293  0.62553419  0.88823956     0.40500
H949        H  0.46522333  0.73618065  0.72998287     0.40100
H950        H  0.46241061  0.76166592  0.76665630     0.35000
C951        C  0.10800350  0.72050159  0.81581016    -0.26800
C952        C  0.08390297  0.72604165  0.83841242    -0.14800
C953        C  0.09239792  0.76289065  0.84631287     0.35800
C954        C  0.12257346  0.79343331  0.82747367    -0.26200
C955        C  0.14343667  0.78754467  0.79993428    -0.15400
C956        C  0.13805816  0.75102966  0.79664020     0.36900
N957        N  0.16124166  0.74378268  0.77253768    -0.89700
H958        H  0.10197495  0.69219375  0.81052653     0.18000
H959        H  0.12717046  0.82145753  0.83084683     0.18000
N960        N  0.06866351  0.76886309  0.87100130    -0.88700
H961        H  0.17221723  0.73176566  0.79093675     0.35400
H962        H  0.18331390  0.76885476  0.76135084     0.40500
H963        H  0.07828527  0.79759690  0.87313222     0.40100
H964        H  0.06918903  0.75893950  0.89948564     0.35000
C965        C  0.39105281  0.62603292  0.71281276    -0.26800
C966        C  0.39351595  0.65931861  0.69814127    -0.14800
C967        C  0.41791434  0.67934296  0.66667403     0.35800
C968        C  0.44154074  0.66801116  0.65316800    -0.26200
C969        C  0.44148094  0.63690936  0.67031889    -0.15400
C970        C  0.41500351  0.61473342  0.69936318     0.36900
N971        N  0.41338869  0.58178679  0.71604556    -0.89700
H972        H  0.37147912  0.60978215  0.73610538     0.18000
H973        H  0.46211356  0.68546987  0.63114279     0.18000
N974        N  0.42068123  0.71274087  0.65008888    -0.88700
H975        H  0.39196600  0.56828100  0.73658058     0.35400
H976        H  0.43721902  0.59052645  0.73170035     0.40500
H977        H  0.41579561  0.70891531  0.61979695     0.40100
H978        H  0.44723738  0.73509719  0.65358392     0.35000
C979        C  0.06412862  0.73066300  0.71110653    -0.26800
C980        C  0.07157634  0.70857932  0.68618059    -0.14800
C981        C  0.10809479  0.72269156  0.67446606     0.35800
C982        C  0.13568285  0.75806291  0.68803924    -0.26200
C983        C  0.12768509  0.77946007  0.71321678    -0.15400
C984        C  0.09109874  0.76568950  0.72400871     0.36900
N985        N  0.07970391  0.78674568  0.74682381    -0.89700
H986        H  0.03659272  0.72118658  0.72053373     0.18000
H987        H  0.16366799  0.76859382  0.67968577     0.18000
N988        N  0.11721071  0.70151660  0.64885345    -0.88700
H989        H  0.06699631  0.77127782  0.77272674     0.35400
H990        H  0.10136735  0.81264875  0.75505302     0.40500
H991        H  0.11225178  0.67738355  0.66468045     0.40100
H992        H  0.14493866  0.71659137  0.64190302     0.35000
C993        C  0.15043750  0.90225770  0.17515717    -0.26800
C994        C  0.13831032  0.87059958  0.20045911    -0.14800
C995        C  0.10086549  0.84336584  0.20266612     0.35800
C996        C  0.07677317  0.84898004  0.18073440    -0.26200
C997        C  0.08795746  0.88209979  0.15801734    -0.15400
C998        C  0.12559707  0.90890156  0.15463873     0.36900
N999        N  0.13857125  0.94294066  0.13141988    -0.89700
H1000       H  0.17918548  0.92298066  0.17336692     0.18000
H1001       H  0.04838366  0.82728270  0.18340097     0.18000
N1002       N  0.08572016  0.80983588  0.22733641    -0.88700
H1003       H  0.16691077  0.95811568  0.12991930     0.35400
H1004       H  0.13119502  0.95978904  0.14648534     0.40500
H1005       H  0.10535061  0.80715632  0.24222119     0.40100
H1006       H  0.06932344  0.81171312  0.24892946     0.35000
C1007       C  0.11535204  0.86332931  0.31530844    -0.26800
C1008       C  0.14193596  0.88629687  0.28716327    -0.14800
C1009       C  0.14652210  0.92186058  0.27659369     0.35800
C1010       C  0.12061071  0.93047465  0.28947687    -0.26200
C1011       C  0.09190388  0.90548010  0.31457302    -0.15400
C1012       C  0.09058039  0.87281247  0.32928224     0.36900
N1013       N  0.06252220  0.84800828  0.35676068    -0.89700
H1014       H  0.11228392  0.83669587  0.32464296     0.18000
H1015       H  0.12197644  0.95584951  0.27837631     0.18000
N1016       N  0.17656309  0.94943521  0.25260404    -0.88700
H1017       H  0.07484328  0.84515461  0.38207700     0.35400
H1018       H  0.04758516  0.82159950  0.34405888     0.40500
H1019       H  0.19532554  0.94114931  0.24756528     0.40100
H1020       H  0.19035285  0.97393868  0.26891882     0.35000
C1021       C  0.30437983  0.91372122  0.15925606    -0.26800
C1022       C  0.32796310  0.94976935  0.17388180    -0.14800
C1023       C  0.31847780  0.95933907  0.21005365     0.35800
C1024       C  0.28350733  0.93719554  0.22540425    -0.26200
C1025       C  0.25992793  0.90068131  0.21236826    -0.15400
C1026       C  0.27122020  0.88845835  0.17940068     0.36900
N1027       N  0.24910399  0.85090845  0.16589024    -0.89700
H1028       H  0.31087253  0.90571567  0.13156326     0.18000
H1029       H  0.27535027  0.94875217  0.24875140     0.18000
N1030       N  0.34340193  0.99253987  0.23103837    -0.88700
H1031       H  0.26454106  0.83806481  0.16676520     0.35400
H1032       H  0.24263434  0.85236604  0.13641712     0.40500
H1033       H  0.36957940  0.00547015  0.21887464     0.40100
H1034       H  0.33445057  0.01160420  0.22924460     0.35000
C1035       C  0.28199656  0.89416681  0.30009620    -0.26800
C1036       C  0.25161141  0.89819466  0.30256739    -0.14800
C1037       C  0.25335167  0.92720634  0.32506988     0.35800
C1038       C  0.28670399  0.95486678  0.33958495    -0.26200
C1039       C  0.31817776  0.95387143  0.33206966    -0.15400
C1040       C  0.31568321  0.92221913  0.31428105     0.36900
N1041       N  0.34758992  0.92010282  0.30792642    -0.89700
H1042       H  0.28021323  0.87120895  0.28353836     0.18000
H1043       H  0.28849206  0.97872335  0.35428600     0.18000
N1044       N  0.22226260  0.93081758  0.32993369    -0.88700
H1045       H  0.34085637  0.89484607  0.29458276     0.35400
H1046       H  0.36447299  0.94169863  0.28783553     0.40500
H1047       H  0.22850959  0.95694496  0.31797956     0.40100
H1048       H  0.21726466  0.93057764  0.36023360     0.35000
C1049       C  0.17714412  0.75210516  0.35227615    -0.26800
C1050       C  0.15112439  0.71648050  0.33923067    -0.14800
C1051       C  0.12520451  0.71319735  0.31194155     0.35800
C1052       C  0.12783452  0.74592642  0.29548166    -0.26200
C1053       C  0.15724981  0.78183787  0.30425245    -0.15400
C1054       C  0.18046604  0.78473922  0.33518616     0.36900
N1055       N  0.20947253  0.82052269  0.34721926    -0.89700
H1056       H  0.19704900  0.75475727  0.37356952     0.18000
H1057       H  0.10853074  0.74315194  0.27341020     0.18000
N1058       N  0.09816168  0.67695674  0.29846946    -0.88700
H1059       H  0.23388001  0.82124233  0.34296612     0.35400
H1060       H  0.20619564  0.82281907  0.37746983     0.40500
H1061       H  0.10139964  0.67663535  0.26785311     0.40100
H1062       H  0.07273668  0.67355731  0.30405587     0.35000
C1063       C  0.40031337  0.78669160  0.28561790    -0.26800
C1064       C  0.40981791  0.76563725  0.26197873    -0.14800
C1065       C  0.44649559  0.77865257  0.25410969     0.35800
C1066       C  0.47301831  0.81310800  0.26888371    -0.26200
C1067       C  0.46415369  0.83529449  0.29208322    -0.15400
C1068       C  0.42708328  0.82184609  0.30022606     0.36900
N1069       N  0.41657599  0.84368361  0.32284005    -0.89700
H1070       H  0.37185959  0.77638850  0.29121126     0.18000
H1071       H  0.50102505  0.82238276  0.26202374     0.18000
N1072       N  0.45665940  0.75684587  0.23077935    -0.88700
H1073       H  0.38842602  0.82916175  0.32698337     0.35400
H1074       H  0.42330161  0.86784946  0.30593819     0.40500
H1075       H  0.44902893  0.73201616  0.24678582     0.40100
H1076       H  0.48479415  0.77077562  0.22674793     0.35000
C1077       C  0.43163642  0.82726295  0.15791370    -0.26800
C1078       C  0.45782583  0.82406150  0.13653559    -0.14800
C1079       C  0.45169699  0.78773074  0.12922776     0.35800
C1080       C  0.42263229  0.75632873  0.14825679    -0.26200
C1081       C  0.39957003  0.76013925  0.17436937    -0.15400
C1082       C  0.40245615  0.79548036  0.17688086     0.36900
N1083       N  0.37661909  0.79943629  0.19969530    -0.89700
H1084       H  0.43554574  0.85480947  0.16291442     0.18000
H1085       H  0.41987883  0.72919582  0.14493694     0.18000
N1086       N  0.47551409  0.78187491  0.10449678    -0.88700
H1087       H  0.39072073  0.82026422  0.22039208     0.35400
H1088       H  0.36403251  0.80919531  0.18063114     0.40500
H1089       H  0.49458429  0.80675854  0.08979738     0.40100
H1090       H  0.45981837  0.76372740  0.08221494     0.35000
C1091       C  0.28488154  0.70341490  0.27776478    -0.26800
C1092       C  0.29155732  0.67400156  0.27974755    -0.14800
C1093       C  0.26989411  0.64255035  0.30491957     0.35800
C1094       C  0.24034295  0.64032818  0.32568891    -0.26200
C1095       C  0.23196694  0.66883223  0.32181949    -0.15400
C1096       C  0.25573463  0.70145639  0.29798926     0.36900
N1097       N  0.25109372  0.73302070  0.29238693    -0.89700
H1098       H  0.30194760  0.72789174  0.25893554     0.18000
H1099       H  0.22317244  0.61560393  0.34402626     0.18000
N1100       N  0.27755410  0.61287640  0.30921092    -0.88700
H1101       H  0.25142856  0.74441276  0.31976113     0.35400
H1102       H  0.22685820  0.72459128  0.27772082     0.40500
H1103       H  0.27121186  0.59844292  0.28283305     0.40100
H1104       H  0.26066550  0.59322897  0.33091286     0.35000
C1105       C  0.41694773  0.61263391  0.28230368    -0.26800
C1106       C  0.39430811  0.59186696  0.31445148    -0.14800
C1107       C  0.36870542  0.60086520  0.32814345     0.35800
C1108       C  0.36395363  0.62755917  0.30751126    -0.26200
C1109       C  0.38351573  0.64527679  0.27254768    -0.15400
C1110       C  0.41215655  0.63962228  0.26163837     0.36900
N1111       N  0.43688431  0.66152409  0.23018803    -0.89700
H1112       H  0.43721148  0.60661263  0.27192473     0.18000
H1113       H  0.34347309  0.63301444  0.31802806     0.18000
N1114       N  0.34653476  0.58265936  0.36260421    -0.88700
H1115       H  0.46275830  0.67709252  0.24213392     0.35400
H1116       H  0.43763127  0.64298025  0.21030718     0.40500
H1117       H  0.36355019  0.58634821  0.38624574     0.40100
H1118       H  0.33012821  0.55390874  0.35768621     0.35000
C1119       C  0.39320900  0.64387462  0.15556186    -0.26800
C1120       C  0.36613247  0.63468367  0.18430938    -0.14800
C1121       C  0.33750110  0.59701917  0.18923550     0.35800
C1122       C  0.33802632  0.56948966  0.16724003    -0.26200
C1123       C  0.36736311  0.57768797  0.14192410    -0.15400
C1124       C  0.39461459  0.61566961  0.13471943     0.36900
N1125       N  0.42412119  0.62547857  0.10760606    -0.89700
H1126       H  0.41465286  0.67284854  0.15121544     0.18000
H1127       H  0.31580603  0.54082869  0.17209537     0.18000
N1128       N  0.30744167  0.58522924  0.21619869    -0.88700
H1129       H  0.44216868  0.65457749  0.10657203     0.35400
H1130       H  0.41322535  0.61811599  0.07936571     0.40500
H1131       H  0.30915696  0.60766356  0.23105281     0.40100
H1132       H  0.30860996  0.56750275  0.23776873     0.35000
C1133       C  0.24955637  0.62710049  0.20386920    -0.26800
C1134       C  0.28081535  0.66118700  0.19201790    -0.14800
C1135       C  0.27790079  0.68354645  0.16201581     0.35800
C1136       C  0.24357935  0.67302943  0.14720314    -0.26200
C1137       C  0.21199348  0.64110897  0.16224175    -0.15400
C1138       C  0.21507722  0.61703756  0.18958443     0.36900
N1139       N  0.18300163  0.58411229  0.20495332    -0.89700
H1140       H  0.25175150  0.60899793  0.22550260     0.18000
H1141       H  0.24105115  0.69175867  0.12645035     0.18000
N1142       N  0.30927061  0.71827854  0.14877142    -0.88700
H1143       H  0.18982319  0.56983308  0.22566385     0.35400
H1144       H  0.17082431  0.56596375  0.18146659     0.40500
H1145       H  0.31752705  0.73653217  0.17245065     0.40100
H1146       H  0.30262482  0.73095585  0.12600635     0.35000
C1147       C  0.13287456  0.75528738  0.19717196    -0.26800
C1148       C  0.16544048  0.77954405  0.21628279    -0.14800
C1149       C  0.19235145  0.77021287  0.21916395     0.35800
C1150       C  0.18593510  0.73636127  0.20375828    -0.26200
C1151       C  0.15292723  0.71088906  0.18551898    -0.15400
C1152       C  0.12598781  0.72064021  0.18232945     0.36900
N1153       N  0.09173588  0.69544959  0.16470056    -0.89700
H1154       H  0.11222734  0.76271492  0.19530869     0.18000
H1155       H  0.20727172  0.73003204  0.20640321     0.18000
N1156       N  0.22648461  0.79553723  0.23716387    -0.88700
H1157       H  0.07551761  0.70740502  0.16376488     0.35400
H1158       H  0.07818399  0.67159724  0.18331714     0.40500
H1159       H  0.22183665  0.79637080  0.26729464     0.40100
H1160       H  0.24421472  0.78549558  0.23501307     0.35000
C1161       C  0.61891362  0.12007191  0.13429365     0.79800
N1162       N  0.64734544  0.11479954  0.14077453    -0.78500
C1163       C  0.67491498  0.13863163  0.16438607     0.82200
N1164       N  0.67447615  0.16792200  0.18008183    -0.78500
C1165       C  0.64764793  0.17486234  0.17293560     0.82300
N1166       N  0.61985405  0.15092122  0.14937822    -0.80200
C1167       C  0.85893816  0.19219543  0.26743786     0.45000
H1168       H  0.86283630  0.19424967  0.29992900    -0.04000
C1169       C  0.85002053  0.18863636  0.19113342     0.45100
H1170       H  0.84631235  0.18688566  0.15860099    -0.04000
C1171       C  0.88046196  0.23041261  0.24559842    -0.17700
C1172       C  0.87082376  0.16695136  0.24732602    -0.17400
C1173       C  0.81936892  0.17658496  0.25519593    -0.17800
C1174       C  0.87576797  0.22876510  0.20535766    -0.17800
C1175       C  0.86535125  0.16487674  0.20703301    -0.17400
C1176       C  0.81466361  0.17446391  0.21487657    -0.17700
C1177       C  0.68351722  0.35716829  0.28991524     0.45000
H1178       H  0.68150262  0.35858674  0.32250756    -0.04000
C1179       C  0.68772564  0.35379163  0.21327844     0.45100
H1180       H  0.68882485  0.35217949  0.18065371    -0.04000
C1181       C  0.66968429  0.31726819  0.27553760    -0.17700
C1182       C  0.66249961  0.37186639  0.26720344    -0.17400
C1183       C  0.72216215  0.38026191  0.27334519    -0.17800
C1184       C  0.67233829  0.31554706  0.23510427    -0.17800
C1185       C  0.66328922  0.36858192  0.22697243    -0.17400
C1186       C  0.72493160  0.37952075  0.23258530    -0.17700
C1187       C  0.53301028  0.41865301  0.10757182     0.79800
N1188       N  0.99963734  0.39053903  0.11511299    -0.78500
C1189       C  0.99364587  0.35873127  0.13410678     0.82200
N1190       N  0.52141379  0.35430128  0.14258392    -0.78500
C1191       C  0.55593393  0.38357167  0.13820046     0.82300
N1192       N  0.56175998  0.41576583  0.11963542    -0.80200
C1193       C  0.90726091  0.02235796  0.10936245     0.79800
N1194       N  0.90136959  0.05159548  0.11090158    -0.78500
C1195       C  0.87131883  0.04712727  0.12908532     0.82200
N1196       N  0.84742095  0.01320188  0.14507759    -0.78500
C1197       C  0.85198050  0.48434286  0.14310365     0.82300
N1198       N  0.88235666  0.48845528  0.12521585    -0.80200
C1199       C  0.51975125  0.42376816  0.34881290     0.79800
N1200       N  0.99051909  0.39523523  0.33141911    -0.78500
C1201       C  0.99409882  0.37099958  0.30785142     0.82200
N1202       N  0.52716786  0.37549081  0.30330341    -0.78500
C1203       C  0.55672349  0.40394229  0.31975588     0.82300
N1204       N  0.55316202  0.42816270  0.34298712    -0.80200
C1205       C  0.91244918  0.02140560  0.36273523     0.79800
N1206       N  0.91824767  0.05491875  0.34750973    -0.78500
C1207       C  0.89187396  0.05542503  0.32564854     0.82200
N1208       N  0.86035537  0.02283420  0.31960649    -0.78500
C1209       C  0.85450587  0.49161423  0.33649785     0.82300
N1210       N  0.88085349  0.49092096  0.35731019    -0.80200
C1211       C  0.64085544  0.12837404  0.37332507     0.79800
N1212       N  0.63310398  0.15586871  0.36614479    -0.78500
C1213       C  0.65800962  0.18844855  0.34781624     0.82200
N1214       N  0.68983531  0.19288570  0.33573165    -0.78500
C1215       C  0.69787934  0.16576283  0.34123459     0.82300
N1216       N  0.67331568  0.13329545  0.36101883    -0.80200
Zr1217     Zr  0.52159457  0.03060716  0.40969744     2.17500
O1218       O  0.52066290  0.04913687  0.34090534    -0.51800
O1219       O  0.52276949  0.98063560  0.37141510    -0.75000
O1220       O  0.58135119  0.07913842  0.38486617    -0.81800
O1221       O  0.92345278  0.50587026  0.42609755    -0.83500
O1222       O  0.62414314  0.08768468  0.42960655    -0.79100
O1223       O  0.97059595  0.03337567  0.38116868    -0.90800
O1224       O  0.51083263  0.43041512  0.41507383    -0.76700
O1225       O  0.55290987  0.00550575  0.44408551    -0.86200
O1226       O  0.97441771  0.47342467  0.44260232    -0.85900
O1227       O  0.55921495  0.07853229  0.45639351    -0.72700
O1228       O  0.98890719  0.04867455  0.45320789    -0.84800
Zr1229     Zr  0.51480738  0.01454778  0.56901214     2.26400
Zr1230     Zr  0.59077926  0.05271682  0.48991411     2.06300
Zr1231     Zr  0.94393430  0.49246144  0.48756823     2.10000
Zr1232     Zr  0.50618971  0.44949586  0.48009008     1.78800
O1233       O  0.90773977  0.01954791  0.50519844    -0.93600
O1234       O  0.54834157  0.42700023  0.48491559    -0.41400
O1235       O  0.97481747  0.46753053  0.52336858    -0.78000
O1236       O  0.54621038  0.99585693  0.52376665    -0.96700
O1237       O  0.55990483  0.07084243  0.53569779    -0.90000
O1238       O  0.98152506  0.03836757  0.53422223    -0.92900
C1239       C  0.51554913  0.44511669  0.38047243     1.00900
C1240       C  0.93720000  0.01962124  0.39117330     1.13800
C1241       C  0.61427816  0.09510274  0.39647289     1.04600
O1242       O  0.62771892  0.02638038  0.47161738    -0.95000
O1243       O  0.61400539  0.04397627  0.55211588    -0.90800
O1244       O  0.56810863  0.01581315  0.59792256    -0.83900
C1245       C  0.60112170  0.02877967  0.58636472     1.11200
O1246       O  0.54301920  0.14410770  0.45167104    -0.97000
Zr1247     Zr  0.52712378  0.09453701  0.50158913     1.88900
O1248       O  0.51399272  0.06422911  0.60867998    -0.73700
O1249       O  0.64334852  0.11238946  0.50851189    -0.52900
O1250       O  0.58358899  0.15168324  0.51796643    -0.97600
O1251       O  0.97853649  0.10943111  0.49675366    -0.54800
O1252       O  0.52029530  0.11121851  0.56754956    -0.74200
C1253       C  0.51582656  0.09595702  0.60189769     0.98200
O1254       O  0.50664865  0.49768446  0.63955919    -0.63000
O1255       O  0.89332834  0.43264827  0.46603782    -0.57800
O1256       O  0.95470800  0.45982864  0.58724037    -0.94500
O1257       O  0.91128120  0.45837547  0.54788973    -0.92900
O1258       O  0.94495698  0.39387166  0.46854882    -0.93300
O1259       O  0.49103391  0.40337203  0.53366832    -0.92000
C1260       C  0.92145894  0.44681820  0.57782908     1.17000
H1261       H  0.95784054  0.45575471  0.42381853     0.33000
H1262       H  0.55702582  0.48374925  0.53769933     0.43800
H1263       H  0.96637754  0.04266162  0.55174213     0.37300
H1264       H  0.57569513  0.10295623  0.44458953     0.33800
H1265       H  0.53741803  0.40388866  0.46920417     0.25600
H1266       H  0.66389902  0.11472747  0.49281414     0.31500
H1267       H  0.59231302  0.14511948  0.54209145     0.37500
H1268       H  0.94919512  0.37751307  0.45126052     0.31900
H1269       H  0.89040867  0.41388078  0.48652851     0.30800
H1270       H  0.88116036  0.49843600  0.49605289     0.32500
H1271       H  0.96242897  0.09633896  0.51990614     0.31400
H1272       H  0.49953039  0.41838997  0.55788173     0.35400
H1273       H  0.00875789  0.47188446  0.63977337     0.28200
H1274       H  0.53752587  0.04394851  0.32632890     0.32400
H1275       H  0.54788304  0.16656283  0.46643272     0.35300
H1276       H  0.87171038  0.43493364  0.46943390     0.27900
H1277       H  0.52731508  0.51871437  0.65310345     0.40700
H1278       H  0.62139027  0.00599748  0.49149569     0.30800
H1279       H  0.56992768  0.44561682  0.46925598     0.38400
H1280       H  0.96396054  0.09562831  0.47370350     0.28100
H1281       H  0.63903264  0.13182528  0.49699853     0.30300
H1282       H  0.53261944  0.07692050  0.34033547     0.30600
Zr1283     Zr  0.52556415  0.03313880  0.91116253     2.17500
O1284       O  0.53753702  0.05324417  0.84165123    -0.51800
O1285       O  0.97400126  0.98509766  0.87227096    -0.75000
O1286       O  0.57809288  0.03104570  0.88428358    -0.81800
O1287       O  0.98204899  0.09473878  0.93302919    -0.83500
O1288       O  0.59156408  0.50026200  0.93020118    -0.79100
O1289       O  0.52311208  0.08871894  0.89167053    -0.90800
O1290       O  0.93263471  0.43838732  0.91341183    -0.76700
O1291       O  0.51142725  0.47711710  0.94474061    -0.86200
O1292       O  0.96860031  0.01129869  0.94545958    -0.85900
O1293       O  0.57471436  0.05202248  0.95700474    -0.72700
O1294       O  0.53332822  0.08071866  0.95637259    -0.84800
Zr1295     Zr  0.51325955  0.01819296  0.07070294     2.26400
Zr1296     Zr  0.55921963  0.49413717  0.99140536     2.06300
Zr1297     Zr  0.97662132  0.05762601  0.99171306     2.10000
Zr1298     Zr  0.95528880  0.45508616  0.97904830     1.78800
O1299       O  0.48522553  0.11769693  0.00825272    -0.93600
O1300       O  0.95284078  0.39585311  0.96891782    -0.41400
O1301       O  0.96438027  0.00159683  0.02620971    -0.78000
O1302       O  0.00233927  0.46949350  0.02442471    -0.96700
O1303       O  0.57000562  0.04282716  0.03716014    -0.90000
O1304       O  0.52475674  0.07479112  0.03710826    -0.92900
C1305       C  0.94431877  0.45294514  0.87900788     1.00900
C1306       C  0.00113129  0.10293912  0.90118003     1.13800
C1307       C  0.59702906  0.01694208  0.89649275     1.04600
O1308       O  0.55088458  0.43325388  0.97572434    -0.95000
O1309       O  0.55670653  0.45957689  0.05189173    -0.90800
O1310       O  0.52081375  0.46732477  0.09550060    -0.83900
C1311       C  0.53843394  0.45160128  0.08444853     1.11200
O1312       O  0.61709406  0.14948553  0.95466763    -0.97000
Zr1313     Zr  0.58095687  0.09836381  0.00226618     1.88900
O1314       O  0.56370202  0.06822406  0.10928391    -0.73700
O1315       O  0.62431749  0.02289551  0.01153901    -0.52900
O1316       O  0.64364827  0.11404697  0.99468442    -0.97600
O1317       O  0.57996904  0.15579356  0.01284281    -0.54800
O1318       O  0.60450503  0.11468720  0.06771576    -0.74200
C1319       C  0.59369444  0.09956647  0.10207430     0.98200
O1320       O  0.99195937  0.50059536  0.13914707    -0.63000
O1321       O  0.91388969  0.03130144  0.97164893    -0.57800
O1322       O  0.95672599  0.01343198  0.09556826    -0.94500
O1323       O  0.94273459  0.04655951  0.05239185    -0.92900
O1324       O  0.89347380  0.44225709  0.98445964    -0.93300
O1325       O  0.91753307  0.40612336  0.02787265    -0.92000
C1326       C  0.93762039  0.02762398  0.08460600     1.17000
H1327       H  0.94942922  0.00691467  0.92762058     0.33000
H1328       H  0.99360219  0.44493356  0.03629641     0.43800
H1329       H  0.52558042  0.09257190  0.05572336     0.37300
H1330       H  0.59816258  0.06394510  0.94411195     0.33800
H1331       H  0.92783114  0.37828441  0.96011350     0.25600
H1332       H  0.62680978  0.50018647  0.00834746     0.31500
H1333       H  0.65052956  0.10919626  0.02103894     0.37500
H1334       H  0.88975163  0.45303191  0.95983363     0.31900
H1335       H  0.90595801  0.04719040  0.98435238     0.30800
H1336       H  0.95744559  0.11325121  0.00224319     0.32500
H1337       H  0.57508300  0.15576734  0.04145875     0.31400
H1338       H  0.92037721  0.41980650  0.05251482     0.35400
H1339       H  0.97479143  0.47303688  0.13947394     0.28200
H1340       H  0.53671569  0.03216228  0.82754632     0.32400
H1341       H  0.63609978  0.17025005  0.97019604     0.35300
H1342       H  0.91512943  0.03758526  0.94307810     0.27900
H1343       H  0.01319039  0.50395064  0.15393411     0.40700
H1344       H  0.52584987  0.41478374  0.98485937     0.30800
H1345       H  0.96819405  0.40040905  0.94515682     0.38400
H1346       H  0.55766237  0.15153793  0.99980639     0.30300
H1347       H  0.62872996  0.00174576  0.01110962     0.30300
H1348       H  0.56328328  0.07379004  0.84005921     0.30600
C1349       C  0.51178875  0.11680968  0.63469741     0.79800
N1350       N  0.54207749  0.14728294  0.64950232    -0.78500
C1351       C  0.53892527  0.17096701  0.67441590     0.82200
N1352       N  0.50540131  0.16415023  0.68321936    -0.78500
C1353       C  0.97472646  0.13571678  0.66650016     0.82300
N1354       N  0.97778993  0.11223017  0.64132002    -0.80200
C1355       C  0.50750659  0.13376854  0.87557976     0.79800
N1356       N  0.54188211  0.16237274  0.86730862    -0.78500
C1357       C  0.54746097  0.19381309  0.84800724     0.82200
N1358       N  0.51871511  0.19590564  0.83573937    -0.78500
C1359       C  0.98281011  0.16834015  0.84421682     0.82300
N1360       N  0.97718425  0.13718008  0.86481797    -0.80200
C1361       C  0.85199770  0.19089525  0.69577319     0.45000
H1362       H  0.85300855  0.18850280  0.66324709    -0.04000
C1363       C  0.85012821  0.19686581  0.77217177     0.45100
H1364       H  0.84976413  0.19961290  0.80472849    -0.04000
C1365       C  0.81337182  0.17104611  0.71367054    -0.17700
C1366       C  0.87234370  0.17511448  0.71829974    -0.17400
C1367       C  0.86887466  0.23150459  0.70841822    -0.17800
C1368       C  0.81212752  0.17158183  0.75445089    -0.17800
C1369       C  0.87244238  0.17955919  0.75842549    -0.17400
C1370       C  0.86672586  0.23485974  0.74872531    -0.17700
C1371       C  0.68961331  0.35888385  0.78295411     0.45000
H1372       H  0.69484909  0.36214299  0.81519688    -0.04000
C1373       C  0.67639723  0.35141163  0.70756929     0.45100
H1374       H  0.67087857  0.34814087  0.67539144    -0.04000
C1375       C  0.67171145  0.38015228  0.76725323    -0.17700
C1376       C  0.72400327  0.37335426  0.75746212    -0.17400
C1377       C  0.66419072  0.31800763  0.77128112    -0.17800
C1378       C  0.66464097  0.37665003  0.72742038    -0.17800
C1379       C  0.71694459  0.36911050  0.71762422    -0.17400
C1380       C  0.65658334  0.31394248  0.73156634    -0.17700
C1381       C  0.62749479  0.02873985  0.61388544     0.79800
N1382       N  0.65754646  0.06273757  0.62036452    -0.78500
C1383       C  0.68530622  0.06478545  0.64068442     0.82200
N1384       N  0.68312625  0.03318092  0.65458830    -0.78500
C1385       C  0.65383408  0.49673472  0.64770277     0.82300
N1386       N  0.62526491  0.49479182  0.62735270    -0.80200
C1387       C  0.89388708  0.41396249  0.60053729     0.79800
N1388       N  0.90055932  0.38606176  0.60964346    -0.78500
C1389       C  0.87457565  0.35394468  0.62777451     0.82200
N1390       N  0.84271300  0.35051925  0.63821417    -0.78500
C1391       C  0.83563473  0.37814039  0.63017758     0.82300
N1392       N  0.86137921  0.41003946  0.61068755    -0.80200
C1393       C  0.91984524  0.43208870  0.84655727     0.79800
N1394       N  0.89158793  0.43735711  0.83796808    -0.78500
C1395       C  0.86489069  0.41319753  0.81354554     0.82200
N1396       N  0.86609049  0.38377735  0.79976977    -0.78500
C1397       C  0.89247860  0.37677447  0.80914135     0.82300
N1398       N  0.91949432  0.40102894  0.83308126    -0.80200
C1399       C  0.62600978  0.01910242  0.87118504     0.79800
N1400       N  0.65387001  0.05274381  0.85565005    -0.78500
C1401       C  0.68311972  0.05364704  0.83822998     0.82200
N1402       N  0.68403396  0.02179017  0.83770748    -0.78500
C1403       C  0.65297504  0.48637169  0.84919581     0.82300
N1404       N  0.62459024  0.48564611  0.86722408    -0.80200
C1405       C  0.79095706  0.42216549  0.76403455    -0.26800
C1406       C  0.76047236  0.38715485  0.77557546    -0.14800
C1407       C  0.76471414  0.36557968  0.80528300     0.35800
C1408       C  0.79890506  0.37814083  0.82144151    -0.26200
C1409       C  0.82994129  0.41145856  0.80777327    -0.15400
C1410       C  0.82583177  0.43423749  0.77932023     0.36900
N1411       N  0.85701075  0.46881835  0.76534019    -0.89700
H1412       H  0.78765818  0.43981178  0.74267826     0.18000
H1413       H  0.80179457  0.35986383  0.84252439     0.18000
N1414       N  0.73475040  0.32961134  0.81758958    -0.88700
H1415       H  0.84937054  0.48230500  0.74452970     0.35400
H1416       H  0.87422489  0.46214145  0.75053897     0.40500
H1417       H  0.73096368  0.32996314  0.84808274     0.40100
H1418       H  0.74151990  0.30926549  0.81213339     0.35000
C1419       C  0.74590186  0.33867550  0.68564239    -0.26800
C1420       C  0.74340249  0.37065729  0.68876970    -0.14800
C1421       C  0.76758978  0.40356747  0.66712440     0.35800
C1422       C  0.79685518  0.40536086  0.64637916    -0.26200
C1423       C  0.80136217  0.37407979  0.64592191    -0.15400
C1424       C  0.77398310  0.33969931  0.66385513     0.36900
N1425       N  0.77458676  0.30566906  0.66070202    -0.89700
H1426       H  0.72652989  0.31292067  0.70136843     0.18000
H1427       H  0.81661685  0.43161950  0.63180966     0.18000
N1428       N  0.76281673  0.43522098  0.66667148    -0.88700
H1429       H  0.75057112  0.28562979  0.64742588     0.35400
H1430       H  0.77495961  0.29577735  0.68925787     0.40500
H1431       H  0.75920645  0.44086715  0.63734402     0.40100
H1432       H  0.78664148  0.45857586  0.67652514     0.35000
C1433       C  0.63042556  0.39789538  0.79818988    -0.26800
C1434       C  0.66552930  0.40432953  0.79334216    -0.14800
C1435       C  0.69441137  0.43333538  0.81380702     0.35800
C1436       C  0.68802332  0.45634367  0.83763473    -0.26200
C1437       C  0.65367658  0.45248808  0.83942704    -0.15400
C1438       C  0.62416683  0.42207800  0.82075724     0.36900
N1439       N  0.58879113  0.41758441  0.82218293    -0.89700
H1440       H  0.60811385  0.37465364  0.78344633     0.18000
H1441       H  0.71473627  0.98199423  0.84988154     0.18000
N1442       N  0.73071993  0.44132462  0.80815920    -0.88700
H1443       H  0.57926666  0.41055833  0.85140534     0.35400
H1444       H  0.57065441  0.39495643  0.80510377     0.40500
H1445       H  0.74650896  0.46879892  0.79666658     0.40100
H1446       H  0.74093628  0.44011857  0.83577865     0.35000
C1447       C  0.62457464  0.42723142  0.66869338    -0.26800
C1448       C  0.65556936  0.46351608  0.66402047    -0.14800
C1449       C  0.68922621  0.46879223  0.67772514     0.35800
C1450       C  0.69041175  0.44015227  0.69860978    -0.26200
C1451       C  0.65969300  0.40472712  0.70433807    -0.15400
C1452       C  0.62653129  0.39768683  0.68797233     0.36900
N1453       N  0.59454668  0.36111575  0.69067743    -0.89700
H1454       H  0.59872414  0.42188401  0.65790368     0.18000
H1455       H  0.71608982  0.44569195  0.71027063     0.18000
N1456       N  0.72389666  0.00547724  0.66869676    -0.88700
H1457       H  0.58792644  0.35381029  0.72049240     0.35400
H1458       H  0.60036449  0.34194351  0.67821889     0.40500
H1459       H  0.73621456  0.01623491  0.69575556     0.40100
H1460       H  0.74089220  0.99955830  0.65226273     0.35000
C1461       C  0.90878599  0.32917754  0.66274440    -0.26800
C1462       C  0.88034533  0.32290139  0.63786580    -0.14800
C1463       C  0.85360109  0.28588100  0.62884220     0.35800
C1464       C  0.85261995  0.25573225  0.64916414    -0.26200
C1465       C  0.87791687  0.26220470  0.67868778    -0.15400
C1466       C  0.90816887  0.29879986  0.68273709     0.36900
N1467       N  0.93709351  0.30499290  0.70845126    -0.89700
H1468       H  0.92995851  0.35774369  0.66876628     0.18000
H1469       H  0.82983162  0.22765087  0.64460245     0.18000
N1470       N  0.82623483  0.27899715  0.60061836    -0.88700
H1471       H  0.95702778  0.33356358  0.70858342     0.35400
H1472       H  0.94928675  0.29107465  0.69660601     0.40500
H1473       H  0.80091681  0.26353127  0.61482723     0.40100
H1474       H  0.82737215  0.26239729  0.57849122     0.35000
C1475       C  0.90073298  0.28974201  0.79301648    -0.26800
C1476       C  0.87203195  0.26980317  0.76676790    -0.14800
C1477       C  0.85040432  0.28503922  0.75589815     0.35800
C1478       C  0.85860173  0.31953334  0.77014653    -0.26200
C1479       C  0.88773915  0.34046796  0.79551634    -0.15400
C1480       C  0.90894494  0.32505346  0.80754128     0.36900
N1481       N  0.93861910  0.34499775  0.83396412    -0.89700
H1482       H  0.91726751  0.27810307  0.80144211     0.18000
H1483       H  0.84133382  0.32990369  0.76043143     0.18000
N1484       N  0.81953621  0.26665546  0.73069908    -0.88700
H1485       H  0.95224899  0.33047157  0.83835579     0.35400
H1486       H  0.92764817  0.34530053  0.86147355     0.40500
H1487       H  0.81610683  0.24186468  0.72005066     0.40100
H1488       H  0.82448647  0.28428412  0.70601316     0.35000
C1489       C  0.71735936  0.12574201  0.67285388    -0.26800
C1490       C  0.71858539  0.10027385  0.64767902    -0.14800
C1491       C  0.75186856  0.10356039  0.63841143     0.35800
C1492       C  0.78279096  0.12895208  0.65853992    -0.26200
C1493       C  0.78111892  0.15133945  0.68794868    -0.15400
C1494       C  0.74816198  0.15132389  0.69349272     0.36900
N1495       N  0.74402059  0.17532934  0.72027970    -0.89700
H1496       H  0.69158816  0.12335896  0.67947076     0.18000
H1497       H  0.80741127  0.12855165  0.65334141     0.18000
N1498       N  0.75384858  0.07950818  0.61003010    -0.88700
H1499       H  0.72422984  0.15818687  0.74142031     0.35400
H1500       H  0.76741536  0.19204969  0.73581510     0.40500
H1501       H  0.76515135  0.06522174  0.62368569     0.40100
H1502       H  0.77175012  0.09658185  0.58740075     0.35000
C1503       C  0.75994599  0.10637579  0.76437692    -0.26800
C1504       C  0.77895045  0.14318183  0.77801498    -0.14800
C1505       C  0.76454062  0.15177057  0.81111034     0.35800
C1506       C  0.73210385  0.12310745  0.83018994    -0.26200
C1507       C  0.71308836  0.08632637  0.81553892    -0.15400
C1508       C  0.72682716  0.07908754  0.78067033     0.36900
N1509       N  0.70732797  0.04446691  0.75989185    -0.89700
H1510       H  0.77053848  0.09856425  0.73967990     0.18000
H1511       H  0.72223992  0.12946081  0.85663990     0.18000
N1512       N  0.78219293  0.18946382  0.82484971    -0.88700
H1513       H  0.68017770  0.03679722  0.75734323     0.35400
H1514       H  0.70942668  0.02326575  0.77438965     0.40500
H1515       H  0.78867427  0.18897977  0.85451819     0.40100
H1516       H  0.76369424  0.19860690  0.82340515     0.35000
C1517       C  0.88917557  0.14777798  0.81064847    -0.26800
C1518       C  0.89954419  0.17798618  0.78393118    -0.14800
C1519       C  0.93640079  0.20544765  0.77897024     0.35800
C1520       C  0.96241616  0.20190067  0.79973157    -0.26200
C1521       C  0.95275226  0.17117378  0.82587243    -0.15400
C1522       C  0.91540365  0.14405326  0.83191098     0.36900
N1523       N  0.90411726  0.11278675  0.85907558    -0.89700
H1524       H  0.86066013  0.12666537  0.81418259     0.18000
H1525       H  0.99058518  0.22329587  0.79431482     0.18000
N1526       N  0.94766279  0.23683396  0.75215850    -0.88700
H1527       H  0.87592909  0.09500047  0.85895135     0.35400
H1528       H  0.91071093  0.12358036  0.88748742     0.40500
H1529       H  0.96570870  0.23675841  0.73146433     0.40100
H1530       H  0.96185089  0.26147794  0.76817058     0.35000
C1531       C  0.60826009  0.22039706  0.81656066    -0.26800
C1532       C  0.58413324  0.22576477  0.83931289    -0.14800
C1533       C  0.59276740  0.26250714  0.84794516     0.35800
C1534       C  0.62286779  0.29320903  0.82921690    -0.26200
C1535       C  0.64357751  0.28750279  0.80131856    -0.15400
C1536       C  0.63838902  0.25110578  0.79775714     0.36900
N1537       N  0.66181115  0.24419861  0.77366545    -0.89700
H1538       H  0.60220178  0.19214414  0.81087798     0.18000
H1539       H  0.62748971  0.32120184  0.83295864     0.18000
N1540       N  0.56927004  0.26823009  0.87330741    -0.88700
H1541       H  0.67284138  0.23221747  0.79202960     0.35400
H1542       H  0.68382789  0.26942077  0.76266979     0.40500
H1543       H  0.57912689  0.29694905  0.87614063     0.40100
H1544       H  0.56984996  0.25775192  0.90147983     0.35000
C1545       C  0.88942508  0.12583074  0.71138486    -0.26800
C1546       C  0.89333303  0.16020804  0.69827445    -0.14800
C1547       C  0.91972126  0.18173714  0.66899016     0.35800
C1548       C  0.94314122  0.17012010  0.65546169    -0.26200
C1549       C  0.94141345  0.13755379  0.67092893    -0.15400
C1550       C  0.91358745  0.11454359  0.69846019     0.36900
N1551       N  0.91098888  0.08092267  0.71453448    -0.89700
H1552       H  0.86870173  0.10880936  0.73340618     0.18000
H1553       H  0.96491626  0.18845072  0.63497790     0.18000
N1554       N  0.92478697  0.21694907  0.65502898    -0.88700
H1555       H  0.88880586  0.06701638  0.73408507     0.35400
H1556       H  0.93413196  0.08894480  0.73124553     0.40500
H1557       H  0.92173717  0.21577276  0.62436004     0.40100
H1558       H  0.95139242  0.23807933  0.66091673     0.35000
C1559       C  0.56285663  0.22995163  0.71199257    -0.26800
C1560       C  0.57057823  0.20704684  0.68868123    -0.14800
C1561       C  0.60726192  0.22054139  0.67837079     0.35800
C1562       C  0.63469762  0.25634967  0.69113687    -0.26200
C1563       C  0.62650375  0.27846945  0.71493341    -0.15400
C1564       C  0.58982461  0.26495298  0.72509193     0.36900
N1565       N  0.57841889  0.28598435  0.74795137    -0.89700
H1566       H  0.53519017  0.22093396  0.72039937     0.18000
H1567       H  0.66278211  0.26653618  0.68358549     0.18000
N1568       N  0.61673070  0.19811584  0.65528115    -0.88700
H1569       H  0.56577169  0.27042868  0.77385049     0.35400
H1570       H  0.60011094  0.31179937  0.75634451     0.40500
H1571       H  0.61084169  0.17440060  0.67255665     0.40100
H1572       H  0.64465572  0.21258170  0.64948627     0.35000
C1573       C  0.64816194  0.40175121  0.17492859    -0.26800
C1574       C  0.63668116  0.37051935  0.20064158    -0.14800
C1575       C  0.59936982  0.34273271  0.20310671     0.35800
C1576       C  0.57476155  0.34743792  0.18088687    -0.26200
C1577       C  0.58544922  0.37977709  0.15690543    -0.15400
C1578       C  0.62295125  0.40712559  0.15350103     0.36900
N1579       N  0.63547963  0.44030474  0.12891394    -0.89700
H1580       H  0.67678268  0.42290312  0.17301056     0.18000
H1581       H  0.54646005  0.32554259  0.18387878     0.18000
N1582       N  0.58500489  0.30932081  0.22787332    -0.88700
H1583       H  0.66382103  0.45610395  0.12786428     0.35400
H1584       H  0.62736213  0.45717956  0.14259422     0.40500
H1585       H  0.60510758  0.30735695  0.24266258     0.40100
H1586       H  0.56833030  0.31067835  0.24949386     0.35000
C1587       C  0.61427525  0.36113666  0.31469287    -0.26800
C1588       C  0.64119101  0.38567964  0.28767452    -0.14800
C1589       C  0.64528888  0.42130726  0.27883750     0.35800
C1590       C  0.61918869  0.42908150  0.29311069    -0.26200
C1591       C  0.59013047  0.40264579  0.31693012    -0.15400
C1592       C  0.58862862  0.36917893  0.32908811     0.36900
N1593       N  0.55932042  0.34197037  0.35387906    -0.89700
H1594       H  0.61143317  0.33425179  0.32236196     0.18000
H1595       H  0.62042070  0.45479752  0.28357978     0.18000
N1596       N  0.67482864  0.44967663  0.25489409    -0.88700
H1597       H  0.57035288  0.33695953  0.37906356     0.35400
H1598       H  0.54531961  0.31686219  0.33855339     0.40500
H1599       H  0.69361133  0.44176885  0.24825270     0.40100
H1600       H  0.68877571  0.47371979  0.27186398     0.35000
C1601       C  0.80344779  0.41657845  0.15581894    -0.26800
C1602       C  0.82706338  0.45274567  0.17004494    -0.14800
C1603       C  0.81800494  0.46278304  0.20617652     0.35800
C1604       C  0.78338994  0.44047308  0.22228556    -0.26200
C1605       C  0.75978389  0.40383900  0.20957077    -0.15400
C1606       C  0.77057772  0.39146276  0.17636889     0.36900
N1607       N  0.74815106  0.35393296  0.16293243    -0.89700
H1608       H  0.80963645  0.40840508  0.12805007     0.18000
H1609       H  0.77546780  0.45207388  0.24581715     0.18000
N1610       N  0.84292033  0.49658692  0.22633691    -0.88700
H1611       H  0.76349237  0.34098213  0.16323855     0.35400
H1612       H  0.74123693  0.35545547  0.13365541     0.40500
H1613       H  0.86885716  0.50993518  0.21349523     0.40100
H1614       H  0.83329336  0.51508086  0.22474907     0.35000
C1615       C  0.78372203  0.39812404  0.29681988    -0.26800
C1616       C  0.75317838  0.40185255  0.29982898    -0.14800
C1617       C  0.75482580  0.43060637  0.32267856     0.35800
C1618       C  0.78805992  0.45799952  0.33765015    -0.26200
C1619       C  0.81961613  0.45720791  0.32996102    -0.15400
C1620       C  0.81735986  0.42608349  0.31121067     0.36900
N1621       N  0.84944115  0.42443668  0.30418696    -0.89700
H1622       H  0.78204161  0.37542924  0.27985172     0.18000
H1623       H  0.78967964  0.48151023  0.35291578     0.18000
N1624       N  0.72375943  0.43427186  0.32743078    -0.88700
H1625       H  0.84291873  0.39964281  0.28993543     0.35400
H1626       H  0.86627096  0.44661988  0.28464302     0.40500
H1627       H  0.73021746  0.46055516  0.31574859     0.40100
H1628       H  0.71852869  0.43375711  0.35770728     0.35000
C1629       C  0.67949208  0.25542503  0.35176602    -0.26800
C1630       C  0.65209912  0.21977901  0.34023881    -0.14800
C1631       C  0.62594966  0.21667478  0.31336324     0.35800
C1632       C  0.62953341  0.24943303  0.29589189    -0.26200
C1633       C  0.66006334  0.28494608  0.30320831    -0.15400
C1634       C  0.68408480  0.28796787  0.33315382     0.36900
N1635       N  0.71526034  0.32349176  0.34215614    -0.89700
H1636       H  0.69976026  0.25791956  0.37245193     0.18000
H1637       H  0.61007879  0.24684340  0.27409092     0.18000
N1638       N  0.59781696  0.18046259  0.30105692    -0.88700
H1639       H  0.73840836  0.32197637  0.33688930     0.35400
H1640       H  0.71416791  0.32803753  0.37227476     0.40500
H1641       H  0.60047963  0.17915485  0.27047790     0.40100
H1642       H  0.57291328  0.17826757  0.30674818     0.35000
C1643       C  0.89943340  0.28522778  0.28950998    -0.26800
C1644       C  0.90881624  0.26445531  0.26519081    -0.14800
C1645       C  0.94534549  0.27796235  0.25616251     0.35800
C1646       C  0.97172781  0.31338950  0.26881365    -0.26200
C1647       C  0.96302982  0.33537004  0.29256493    -0.15400
C1648       C  0.92620479  0.32087846  0.30312043     0.36900
N1649       N  0.91596717  0.34210415  0.32720256    -0.89700
H1650       H  0.87106446  0.27435501  0.29633946     0.18000
H1651       H  0.99955697  0.32337506  0.26025742     0.18000
N1652       N  0.95543773  0.25554590  0.23382857    -0.88700
H1653       H  0.88805123  0.32681808  0.33310943     0.35400
H1654       H  0.92114217  0.36594261  0.31061662     0.40500
H1655       H  0.94859013  0.23153511  0.25104960     0.40100
H1656       H  0.98350379  0.26971109  0.22910243     0.35000
C1657       C  0.93146926  0.32880142  0.16333329    -0.26800
C1658       C  0.95695812  0.32551446  0.14060620    -0.14800
C1659       C  0.94997729  0.28916771  0.13175300     0.35800
C1660       C  0.92092693  0.25761953  0.15058055    -0.26200
C1661       C  0.89843934  0.26122362  0.17772104    -0.15400
C1662       C  0.90205725  0.29679280  0.18181751     0.36900
N1663       N  0.87662954  0.30065293  0.20553893    -0.89700
H1664       H  0.93598302  0.35640980  0.16944916     0.18000
H1665       H  0.91759323  0.23037743  0.14602459     0.18000
N1666       N  0.97286259  0.28335521  0.10542916    -0.88700
H1667       H  0.89108295  0.32109888  0.22648408     0.35400
H1668       H  0.86405900  0.31095513  0.18718545     0.40500
H1669       H  0.99196784  0.30841534  0.09103574     0.40100
H1670       H  0.95647910  0.26594889  0.08303417     0.35000
C1671       C  0.78502454  0.20463966  0.27918049    -0.26800
C1672       C  0.79168339  0.17521831  0.28252160    -0.14800
C1673       C  0.77000403  0.14444941  0.30842070     0.35800
C1674       C  0.74047742  0.14279832  0.32853232    -0.26200
C1675       C  0.73207624  0.17115382  0.32320801    -0.15400
C1676       C  0.75582664  0.20318995  0.29873096     0.36900
N1677       N  0.75103855  0.23451405  0.29174620    -0.89700
H1678       H  0.80200495  0.22854784  0.25963627     0.18000
H1679       H  0.72336287  0.11861398  0.34756994     0.18000
N1680       N  0.77757719  0.11482832  0.31401957    -0.88700
H1681       H  0.75157703  0.24676493  0.31861766     0.35400
H1682       H  0.72659969  0.22548639  0.27728032     0.40500
H1683       H  0.77365609  0.10120946  0.28733164     0.40100
H1684       H  0.75931271  0.09456032  0.33443374     0.35000
C1685       C  0.91621186  0.11173338  0.28032107    -0.26800
C1686       C  0.89379864  0.09064749  0.31251412    -0.14800
C1687       C  0.86726605  0.09844740  0.32601501     0.35800
C1688       C  0.86184137  0.12457519  0.30521500    -0.26200
C1689       C  0.88166544  0.14315289  0.27072037    -0.15400
C1690       C  0.91063588  0.13815409  0.25958632     0.36900
N1691       N  0.93482007  0.16003125  0.22775527    -0.89700
H1692       H  0.93684628  0.10628624  0.26987953     0.18000
H1693       H  0.84106262  0.12949216  0.31573248     0.18000
N1694       N  0.84474290  0.07981134  0.36034405    -0.88700
H1695       H  0.96083752  0.17600081  0.23924033     0.35400
H1696       H  0.93552832  0.14145127  0.20788779     0.40500
H1697       H  0.85299583  0.06355122  0.37577465     0.40100
H1698       H  0.81836456  0.06169429  0.35067499     0.35000
C1699       C  0.89179819  0.14515701  0.15377177    -0.26800
C1700       C  0.86423751  0.13538049  0.18217919    -0.14800
C1701       C  0.83544930  0.09762908  0.18576898     0.35800
C1702       C  0.83649672  0.07059931  0.16327331    -0.26200
C1703       C  0.86684760  0.07914251  0.13954072    -0.15400
C1704       C  0.89396800  0.11728930  0.13295127     0.36900
N1705       N  0.92423508  0.12754853  0.10682968    -0.89700
H1706       H  0.91327069  0.17420766  0.15013072     0.18000
H1707       H  0.81418610  0.04185325  0.16721612     0.18000
N1708       N  0.80497850  0.08512574  0.21232511    -0.88700
H1709       H  0.94206246  0.15669134  0.10614443     0.35400
H1710       H  0.91413095  0.12027058  0.07826772     0.40500
H1711       H  0.80667105  0.10702591  0.22829012     0.40100
H1712       H  0.80561292  0.06649483  0.23311254     0.35000
C1713       C  0.74826565  0.12706038  0.20876221    -0.26800
C1714       C  0.77898840  0.16107809  0.19566992    -0.14800
C1715       C  0.77499482  0.18288991  0.16594979     0.35800
C1716       C  0.74028892  0.17119360  0.15157663    -0.26200
C1717       C  0.70927688  0.13921240  0.16755933    -0.15400
C1718       C  0.71331473  0.11634434  0.19568657     0.36900
N1719       N  0.68183395  0.08408872  0.21303611    -0.89700
H1720       H  0.75124132  0.10965090  0.23064616     0.18000
H1721       H  0.73694470  0.18924764  0.13062974     0.18000
N1722       N  0.80560489  0.21822580  0.15261516    -0.88700
H1723       H  0.68942064  0.07089062  0.23426929     0.35400
H1724       H  0.66889583  0.06478286  0.19065018     0.40500
H1725       H  0.81392565  0.23631071  0.17647696     0.40100
H1726       H  0.79807903  0.23063971  0.13042329     0.35000
C1727       C  0.63438125  0.25732320  0.19656007    -0.26800
C1728       C  0.66717372  0.28156684  0.21524458    -0.14800
C1729       C  0.69372036  0.27165707  0.21830608     0.35800
C1730       C  0.68621363  0.23681041  0.20454605    -0.26200
C1731       C  0.65273967  0.21124667  0.18716122    -0.15400
C1732       C  0.62669111  0.22207982  0.18271409     0.36900
N1733       N  0.59251632  0.19740685  0.16467058    -0.89700
H1734       H  0.61416775  0.26531424  0.19417167     0.18000
H1735       H  0.70715932  0.22992202  0.20741829     0.18000
N1736       N  0.72860713  0.29741928  0.23454398    -0.88700
H1737       H  0.57704694  0.21016666  0.16260254     0.35400
H1738       H  0.57812702  0.17387841  0.18354893     0.40500
H1739       H  0.72504762  0.30016950  0.26452086     0.40100
H1740       H  0.74576628  0.28663046  0.23294534     0.35000
C1741       C  0.61853942  0.61934830  0.13347621     0.79800
N1742       N  0.64762363  0.61484775  0.13871523    -0.78500
C1743       C  0.67558303  0.63911453  0.16170804     0.82200
N1744       N  0.67472076  0.66794780  0.17797899    -0.78500
C1745       C  0.64717904  0.67401482  0.17204525     0.82300
N1746       N  0.61912667  0.64976824  0.14908952    -0.80200
C1747       C  0.85932658  0.69453314  0.26598238     0.45000
H1748       H  0.86270351  0.69704199  0.29852260    -0.04000
C1749       C  0.85127606  0.68985077  0.18958391     0.45100
H1750       H  0.84792997  0.68768090  0.15700747    -0.04000
C1751       C  0.88091418  0.73258803  0.24367486    -0.17700
C1752       C  0.87170645  0.66924030  0.24729426    -0.17400
C1753       C  0.81984183  0.67794103  0.25286470    -0.17800
C1754       C  0.87650413  0.73034003  0.20338418    -0.17800
C1755       C  0.86669353  0.66649408  0.20689114    -0.17400
C1756       C  0.81553092  0.67550450  0.21254758    -0.17700
C1757       C  0.68304447  0.85504625  0.28956537     0.45000
H1758       H  0.68091184  0.85622019  0.32216684    -0.04000
C1759       C  0.68781659  0.85251000  0.21285948     0.45100
H1760       H  0.68922261  0.85125588  0.18020163    -0.04000
C1761       C  0.66811561  0.81504010  0.27466523    -0.17700
C1762       C  0.66324540  0.87131910  0.26698027    -0.17400
C1763       C  0.72193431  0.87729900  0.27334783    -0.17800
C1764       C  0.67100009  0.81387380  0.23419100    -0.17800
C1765       C  0.66431912  0.86837419  0.22670757    -0.17400
C1766       C  0.72503453  0.87702892  0.23257505    -0.17700
C1767       C  0.53473440  0.91981744  0.10815536     0.79800
N1768       N  0.00169740  0.89340279  0.11618396    -0.78500
C1769       C  0.99548010  0.86106883  0.13417337     0.82200
N1770       N  0.52283383  0.85618762  0.14498235    -0.78500
C1771       C  0.55728672  0.88573620  0.14133026     0.82300
N1772       N  0.56331887  0.91760113  0.12196227    -0.80200
C1773       C  0.90650192  0.52239697  0.10714415     0.79800
N1774       N  0.90118139  0.55200977  0.10946374    -0.78500
C1775       C  0.87119120  0.54770958  0.12777917     0.82200
N1776       N  0.84673530  0.51358785  0.14280639    -0.78500
C1777       C  0.85307679  0.98419829  0.14568535     0.82300
N1778       N  0.88347012  0.98849148  0.12772478    -0.80200
C1779       C  0.52099149  0.92575752  0.34641401     0.79800
N1780       N  0.99189654  0.89697169  0.33094899    -0.78500
C1781       C  0.99542602  0.87276721  0.30727388     0.82200
N1782       N  0.52857368  0.87640335  0.30277682    -0.78500
C1783       C  0.55812682  0.90526900  0.31876758     0.82300
N1784       N  0.55449406  0.93011131  0.34100609    -0.80200
C1785       C  0.91251163  0.52331295  0.36414796     0.79800
N1786       N  0.91763066  0.55703089  0.35030775    -0.78500
C1787       C  0.89066472  0.55757069  0.32954971     0.82200
N1788       N  0.85951764  0.52482465  0.32296554    -0.78500
C1789       C  0.85471975  0.98971380  0.33437384     0.82300
N1790       N  0.88059812  0.98909238  0.35624346    -0.80200
C1791       C  0.63955994  0.62482649  0.37096015     0.79800
N1792       N  0.63172058  0.65217788  0.36293576    -0.78500
C1793       C  0.65653722  0.68445972  0.34400907     0.82200
N1794       N  0.68832002  0.68870110  0.33230607    -0.78500
C1795       C  0.69663046  0.66193398  0.33892262     0.82300
N1796       N  0.67213803  0.62968690  0.35910484    -0.80200
Zr1797     Zr  0.52052454  0.52895009  0.41017667     2.17500
O1798       O  0.51910449  0.54746548  0.34150909    -0.51800
O1799       O  0.51865422  0.47722292  0.37263172    -0.75000
O1800       O  0.58018855  0.57596863  0.38391837    -0.81800
O1801       O  0.92297740  0.00303941  0.42449436    -0.83500
O1802       O  0.62337982  0.58574757  0.42863724    -0.79100
O1803       O  0.97007700  0.53238221  0.38112925    -0.90800
O1804       O  0.50763190  0.93021206  0.41188141    -0.76700
O1805       O  0.55212551  0.50455817  0.44538974    -0.86200
O1806       O  0.97529514  0.97414223  0.44230788    -0.85900
O1807       O  0.55867151  0.57775037  0.45557987    -0.72700
O1808       O  0.98899892  0.54821410  0.45344115    -0.84800
Zr1809     Zr  0.51509365  0.51557083  0.56939592     2.26400
Zr1810     Zr  0.59060301  0.55286534  0.49006136     2.06300
Zr1811     Zr  0.94421863  0.99257358  0.48710101     2.10000
Zr1812     Zr  0.50703530  0.94999106  0.47789055     1.78800
O1813       O  0.90556317  0.51725909  0.50542583    -0.93600
O1814       O  0.55131887  0.93017739  0.47570946    -0.41400
O1815       O  0.97557062  0.96804078  0.52274689    -0.78000
O1816       O  0.54617307  0.49627270  0.52456706    -0.96700
O1817       O  0.55988981  0.57169778  0.53525615    -0.90000
O1818       O  0.98161915  0.53831127  0.53440309    -0.92900
C1819       C  0.51628648  0.94694377  0.37809931     1.00900
C1820       C  0.93732073  0.52102644  0.39215622     1.13800
C1821       C  0.61321349  0.59219994  0.39516145     1.04600
O1822       O  0.63100312  0.53003190  0.47430417    -0.95000
O1823       O  0.61402718  0.54352392  0.55209916    -0.90800
O1824       O  0.56832067  0.51604382  0.59816837    -0.83900
C1825       C  0.60123648  0.52841920  0.58645123     1.11200
O1826       O  0.54138821  0.64375204  0.45018904    -0.97000
Zr1827     Zr  0.52672836  0.59454759  0.50017440     1.88900
O1828       O  0.51432607  0.56562801  0.60764571    -0.73700
O1829       O  0.64085997  0.61519135  0.50576202    -0.52900
O1830       O  0.58278581  0.65257471  0.51490573    -0.97600
O1831       O  0.97760885  0.60733397  0.49719252    -0.54800
O1832       O  0.52064289  0.61218176  0.56578508    -0.74200
C1833       C  0.51622663  0.59723484  0.60028715     0.98200
O1834       O  0.50407985  0.99209625  0.63782405    -0.63000
O1835       O  0.89047450  0.93363532  0.46895785    -0.57800
O1836       O  0.95503135  0.95953476  0.58734866    -0.94500
O1837       O  0.91163437  0.95538732  0.54587922    -0.92900
O1838       O  0.94791512  0.89383159  0.46606594    -0.93300
O1839       O  0.49767940  0.90438643  0.53000830    -0.92000
C1840       C  0.92182644  0.94501718  0.57674357     1.17000
H1841       H  0.95897068  0.95642969  0.42342270     0.33000
H1842       H  0.55713251  0.98339039  0.53695457     0.43800
H1843       H  0.96658779  0.54283761  0.55186983     0.37300
H1844       H  0.57503631  0.60178093  0.44291519     0.33800
H1845       H  0.53897352  0.90580339  0.46218279     0.25600
H1846       H  0.63907558  0.61710563  0.53470747     0.31500
H1847       H  0.60135680  0.65271106  0.49747019     0.37500
H1848       H  0.93041277  0.89665775  0.48245321     0.31900
H1849       H  0.87089764  0.93943363  0.46757490     0.30800
H1850       H  0.88448654  0.99792057  0.51519326     0.32500
H1851       H  0.96436209  0.59820910  0.52281048     0.31400
H1852       H  0.49778956  0.91667443  0.55483908     0.35400
H1853       H  0.00960703  0.97398926  0.64081086     0.28200
H1854       H  0.53570722  0.54211778  0.32662479     0.32400
H1855       H  0.54152048  0.66444312  0.46440076     0.35300
H1856       H  0.89471529  0.92965988  0.44117719     0.27900
H1857       H  0.52383549  0.01247831  0.65299051     0.40700
H1858       H  0.65566362  0.55160915  0.47904471     0.30800
H1859       H  0.57014328  0.94785288  0.45651523     0.38400
H1860       H  0.96056232  0.58971198  0.47764040     0.28100
H1861       H  0.66289242  0.61374029  0.50183737     0.30300
H1862       H  0.53120988  0.57526980  0.34095498     0.30600
Zr1863     Zr  0.52511330  0.53391588  0.91056897     2.17500
O1864       O  0.53899956  0.55348118  0.84099679    -0.51800
O1865       O  0.97488724  0.48367645  0.87183035    -0.75000
O1866       O  0.57712756  0.53094477  0.88407241    -0.81800
O1867       O  0.98167653  0.59211960  0.92948079    -0.83500
O1868       O  0.59304513  0.00088455  0.93052726    -0.79100
O1869       O  0.52282304  0.58962129  0.89063282    -0.90800
O1870       O  0.93502973  0.93728168  0.91376326    -0.76700
O1871       O  0.51307376  0.97693585  0.94570639    -0.86200
O1872       O  0.96903625  0.51152153  0.94459691    -0.85900
O1873       O  0.57388444  0.55138701  0.95670787    -0.72700
O1874       O  0.53378305  0.58189798  0.95570686    -0.84800
Zr1875     Zr  0.51219348  0.51819897  0.07024882     2.26400
Zr1876     Zr  0.56133425  0.99528914  0.99202540     2.06300
Zr1877     Zr  0.97850515  0.55865497  0.99047561     2.10000
Zr1878     Zr  0.95653462  0.95551909  0.97966007     1.78800
O1879       O  0.48949241  0.62087942  0.00829875    -0.93600
O1880       O  0.95341459  0.89578761  0.97091010    -0.41400
O1881       O  0.96436872  0.50192204  0.02498153    -0.78000
O1882       O  0.00390672  0.97127989  0.02541527    -0.96700
O1883       O  0.56864752  0.54182353  0.03649492    -0.90000
O1884       O  0.52499366  0.57551977  0.03689858    -0.92900
C1885       C  0.94482168  0.95291040  0.87948901     1.00900
C1886       C  0.00277807  0.60193682  0.89908043     1.13800
C1887       C  0.59568912  0.51644389  0.89620495     1.04600
O1888       O  0.55456281  0.93492920  0.97707801    -0.95000
O1889       O  0.55887266  0.96077098  0.05257881    -0.90800
O1890       O  0.52256736  0.96810642  0.09594598    -0.83900
C1891       C  0.54040324  0.95266828  0.08501318     1.11200
O1892       O  0.61895196  0.64467864  0.95124391    -0.97000
Zr1893     Zr  0.58093819  0.59793091  0.00187983     1.88900
O1894       O  0.56328395  0.56746327  0.10871541    -0.73700
O1895       O  0.62151701  0.52038981  0.01272479    -0.52900
O1896       O  0.64355965  0.61266483  0.00152732    -0.97600
O1897       O  0.58320627  0.65738818  0.00955783    -0.54800
O1898       O  0.60336119  0.61479753  0.06743456    -0.74200
C1899       C  0.59302296  0.59905983  0.10155660     0.98200
O1900       O  0.99559248  0.00583574  0.14112966    -0.63000
O1901       O  0.91753179  0.54033861  0.96975649    -0.57800
O1902       O  0.95680101  0.51434405  0.09443313    -0.94500
O1903       O  0.94177211  0.54543913  0.04959669    -0.92900
O1904       O  0.89497909  0.94359095  0.97650643    -0.93300
O1905       O  0.91704619  0.90866556  0.02936438    -0.92000
C1906       C  0.93704863  0.52754731  0.08251795     1.17000
H1907       H  0.95012222  0.50788527  0.92673010     0.33000
H1908       H  0.99584029  0.94686546  0.03727911     0.43800
H1909       H  0.52639860  0.59362902  0.05542444     0.37300
H1910       H  0.59748766  0.56314987  0.94416287     0.33800
H1911       H  0.92852250  0.87847055  0.96159617     0.25600
H1912       H  0.62452476  0.02831482  0.03994535     0.31500
H1913       H  0.64573966  0.60011197  0.02564774     0.37500
H1914       H  0.89093253  0.95239190  0.00191428     0.31900
H1915       H  0.90149091  0.51560534  0.98300341     0.30800
H1916       H  0.96567075  0.61617737  0.01521785     0.32500
H1917       H  0.58222244  0.66032333  0.03841716     0.31400
H1918       H  0.92011044  0.92328732  0.05332039     0.35400
H1919       H  0.97966585  0.97813181  0.14353650     0.28200
H1920       H  0.53836156  0.53225893  0.82738180     0.32400
H1921       H  0.63793793  0.66641156  0.96571479     0.35300
H1922       H  0.91198472  0.55777046  0.98323778     0.27900
H1923       H  0.01782394  0.01146887  0.15537755     0.40700
H1924       H  0.52861698  0.91635922  0.98253539     0.30800
H1925       H  0.96917176  0.90006615  0.94759127     0.38400
H1926       H  0.55960400  0.65266694  0.99987637     0.30300
H1927       H  0.63641541  0.54003068  0.99247960     0.30300
H1928       H  0.56478004  0.57399315  0.83988506     0.30600
C1929       C  0.51209437  0.61809328  0.63267905     0.79800
N1930       N  0.54225737  0.64866471  0.64737996    -0.78500
C1931       C  0.53892178  0.67229809  0.67211050     0.82200
N1932       N  0.50529395  0.66527790  0.68085457    -0.78500
C1933       C  0.97589095  0.63720580  0.66573623     0.82300
N1934       N  0.97874930  0.61311890  0.64129147    -0.80200
C1935       C  0.50763420  0.63530191  0.87523156     0.79800
N1936       N  0.54200097  0.66394701  0.86691537    -0.78500
C1937       C  0.54751165  0.69562853  0.84816295     0.82200
N1938       N  0.51873272  0.69788283  0.83640002    -0.78500
C1939       C  0.98398494  0.66787942  0.84417618     0.82300
N1940       N  0.97866740  0.63657090  0.86410403    -0.80200
C1941       C  0.85187545  0.68960134  0.69831185     0.45000
H1942       H  0.85285353  0.68761836  0.66573963    -0.04000
C1943       C  0.84961656  0.69463090  0.77479493     0.45100
H1944       H  0.84909111  0.69695478  0.80739549    -0.04000
C1945       C  0.81320395  0.66887125  0.71589638    -0.17700
C1946       C  0.87260222  0.67408359  0.72059618    -0.17400
C1947       C  0.86814810  0.73001871  0.71152751    -0.17800
C1948       C  0.81185912  0.66891338  0.75671829    -0.17800
C1949       C  0.87237292  0.67801226  0.76085987    -0.17400
C1950       C  0.86598232  0.73289072  0.75188082    -0.17700
C1951       C  0.68949493  0.85922167  0.78107194     0.45000
H1952       H  0.69428624  0.86185612  0.81341585    -0.04000
C1953       C  0.67731976  0.85323650  0.70545554     0.45100
H1954       H  0.67226903  0.85066950  0.67316242    -0.04000
C1955       C  0.67284196  0.88173556  0.76556717    -0.17700
C1956       C  0.72404090  0.87298098  0.75622993    -0.17400
C1957       C  0.66344912  0.81880703  0.76857981    -0.17800
C1958       C  0.66619690  0.87887420  0.72564172    -0.17800
C1959       C  0.71764366  0.86965127  0.71620477    -0.17400
C1960       C  0.65622275  0.81548381  0.72877415    -0.17700
C1961       C  0.62761195  0.52764887  0.61375279     0.79800
N1962       N  0.65814764  0.56135126  0.62005742    -0.78500
C1963       C  0.68591093  0.56280903  0.63986769     0.82200
N1964       N  0.68315213  0.53093765  0.65366581    -0.78500
C1965       C  0.65429199  0.99875435  0.64816025     0.82300
N1966       N  0.62572895  0.99624213  0.62743699    -0.80200
C1967       C  0.89411846  0.91220840  0.59951447     0.79800
N1968       N  0.90059369  0.88431306  0.60972073    -0.78500
C1969       C  0.87417511  0.85238930  0.62795611     0.82200
N1970       N  0.84225591  0.84930586  0.63729841    -0.78500
C1971       C  0.83539193  0.87685397  0.62817609     0.82300
N1972       N  0.86147624  0.90845410  0.60862930    -0.80200
C1973       C  0.91958222  0.93138772  0.84753188     0.79800
N1974       N  0.89071167  0.93595990  0.83970833    -0.78500
C1975       C  0.86304989  0.91053175  0.81693640     0.82200
N1976       N  0.86413736  0.88088949  0.80374669    -0.78500
C1977       C  0.89131491  0.87482324  0.81194853     0.82300
N1978       N  0.91913474  0.90012853  0.83442637    -0.80200
C1979       C  0.62407931  0.51799865  0.87056358     0.79800
N1980       N  0.65193499  0.55130931  0.85444852    -0.78500
C1981       C  0.68029751  0.55138760  0.83585838     0.82200
N1982       N  0.68044859  0.51917278  0.83482718    -0.78500
C1983       C  0.65637987  0.98851996  0.85094650     0.82300
N1984       N  0.62719477  0.98708815  0.86789589    -0.80200
C1985       C  0.79086525  0.92066173  0.76483624    -0.26800
C1986       C  0.75992768  0.88569484  0.77528430    -0.14800
C1987       C  0.76298818  0.86364220  0.80542117     0.35800
C1988       C  0.79664756  0.87573449  0.82290244    -0.26200
C1989       C  0.82826984  0.90911242  0.81026948    -0.15400
C1990       C  0.82514272  0.93229742  0.78149233     0.36900
N1991       N  0.85681467  0.96685129  0.76841566    -0.89700
H1992       H  0.78837282  0.93873372  0.74335290     0.18000
H1993       H  0.79870576  0.85712413  0.84427072     0.18000
N1994       N  0.73238508  0.82779211  0.81695238    -0.88700
H1995       H  0.84986352  0.98084503  0.74747666     0.35400
H1996       H  0.87411308  0.96006674  0.75398608     0.40500
H1997       H  0.72771159  0.82801779  0.84726351     0.40100
H1998       H  0.73893082  0.80718675  0.81209579     0.35000
C1999       C  0.74588674  0.83865561  0.68368929    -0.26800
C2000       C  0.74426705  0.87110324  0.68753275    -0.14800
C2001       C  0.76920161  0.90416200  0.66649229     0.35800
C2002       C  0.79773520  0.90520547  0.64490026    -0.26200
C2003       C  0.80128990  0.87336295  0.64368032    -0.15400
C2004       C  0.77361965  0.83917947  0.66166177     0.36900
N2005       N  0.77376755  0.80489370  0.65861755    -0.89700
H2006       H  0.72613403  0.81289862  0.69913773     0.18000
H2007       H  0.81795719  0.93145310  0.63068121     0.18000
N2008       N  0.76615633  0.93685493  0.66777108    -0.88700
H2009       H  0.74946129  0.78485089  0.64584143     0.35400
H2010       H  0.77455995  0.79527106  0.68718329     0.40500
H2011       H  0.76264685  0.94367239  0.63887788     0.40100
H2012       H  0.79062942  0.95922868  0.67778665     0.35000
C2013       C  0.63261299  0.90007319  0.79834527    -0.26800
C2014       C  0.66748869  0.90630140  0.79206741    -0.14800
C2015       C  0.69689824  0.93502638  0.81227166     0.35800
C2016       C  0.69141321  0.95862301  0.83630693    -0.26200
C2017       C  0.65716773  0.95490488  0.83957006    -0.15400
C2018       C  0.62721029  0.92436395  0.82169761     0.36900
N2019       N  0.59178067  0.91921756  0.82510935    -0.89700
H2020       H  0.60962764  0.87680433  0.78446163     0.18000
H2021       H  0.71092831  0.47986336  0.85159226     0.18000
N2022       N  0.73274230  0.94166387  0.80677468    -0.88700
H2023       H  0.57436143  0.89234054  0.83731212     0.35400
H2024       H  0.58286299  0.92021884  0.79665182     0.40500
H2025       H  0.74935559  0.96910067  0.79552320     0.40100
H2026       H  0.74250780  0.93975183  0.83443720     0.35000
C2027       C  0.62541449  0.92967806  0.66916633    -0.26800
C2028       C  0.65646595  0.96574639  0.66380666    -0.14800
C2029       C  0.69036686  0.97094009  0.67627929     0.35800
C2030       C  0.69192365  0.94209635  0.69622214    -0.26200
C2031       C  0.66109220  0.90691615  0.70288395    -0.15400
C2032       C  0.62752059  0.90016845  0.68809269     0.36900
N2033       N  0.59521323  0.86398072  0.69216664    -0.89700
H2034       H  0.59933239  0.92456187  0.65948703     0.18000
H2035       H  0.71783460  0.94742442  0.70686063     0.18000
N2036       N  0.72299225  0.50310438  0.67012439    -0.88700
H2037       H  0.58945792  0.85740438  0.72220539     0.35400
H2038       H  0.60008636  0.84417027  0.67962009     0.40500
H2039       H  0.73503246  0.51421979  0.69719620     0.40100
H2040       H  0.74005800  0.49679933  0.65438871     0.35000
C2041       C  0.90804856  0.82745343  0.66394446    -0.26800
C2042       C  0.87925530  0.82106977  0.63952044    -0.14800
C2043       C  0.85141039  0.78390235  0.63255204     0.35800
C2044       C  0.85032736  0.75409089  0.65365872    -0.26200
C2045       C  0.87640545  0.76079894  0.68219848    -0.15400
C2046       C  0.90709696  0.79732410  0.68505388     0.36900
N2047       N  0.93637141  0.80371963  0.71030566    -0.89700
H2048       H  0.92989236  0.85602307  0.66865711     0.18000
H2049       H  0.82706946  0.72606318  0.65025250     0.18000
N2050       N  0.82308142  0.77653498  0.60549478    -0.88700
H2051       H  0.95671139  0.83216141  0.70936645     0.35400
H2052       H  0.94785130  0.78896553  0.69881559     0.40500
H2053       H  0.79833045  0.76207742  0.62096459     0.40100
H2054       H  0.82282853  0.75875685  0.58388522     0.35000
C2055       C  0.90067973  0.78846069  0.79536736    -0.26800
C2056       C  0.87117286  0.76766196  0.77028917    -0.14800
C2057       C  0.84876457  0.78215880  0.76030928     0.35800
C2058       C  0.85698031  0.81681512  0.77410983    -0.26200
C2059       C  0.88680611  0.83855887  0.79839274    -0.15400
C2060       C  0.90884388  0.82389405  0.80955922     0.36900
N2061       N  0.93931090  0.84473966  0.83476163    -0.89700
H2062       H  0.91786163  0.77742341  0.80309407     0.18000
H2063       H  0.83912187  0.82662593  0.76497513     0.18000
N2064       N  0.81705258  0.76275950  0.73645911    -0.88700
H2065       H  0.95331791  0.83056873  0.83884509     0.35400
H2066       H  0.92916030  0.84558398  0.86258914     0.40500
H2067       H  0.81399559  0.73814562  0.72577727     0.40100
H2068       H  0.82073692  0.77986710  0.71165615     0.35000
C2069       C  0.71720782  0.62241709  0.67434561    -0.26800
C2070       C  0.71910749  0.59806211  0.64812011    -0.14800
C2071       C  0.75269342  0.60191321  0.63909974     0.35800
C2072       C  0.78334201  0.62726214  0.65982401    -0.26200
C2073       C  0.78107181  0.64890047  0.68980030    -0.15400
C2074       C  0.74760075  0.64779865  0.69562489     0.36900
N2075       N  0.74242777  0.67040766  0.72340850    -0.89700
H2076       H  0.69116025  0.61931640  0.68114824     0.18000
H2077       H  0.80825623  0.62746654  0.65453088     0.18000
N2078       N  0.75526836  0.57852187  0.61030519    -0.88700
H2079       H  0.72283143  0.65229013  0.74423991     0.35400
H2080       H  0.76560671  0.68742096  0.73910550     0.40500
H2081       H  0.76619751  0.56383528  0.62390574     0.40100
H2082       H  0.77359637  0.59606169  0.58820115     0.35000
C2083       C  0.75926258  0.60376150  0.76506441    -0.26800
C2084       C  0.77878472  0.64009416  0.77993824    -0.14800
C2085       C  0.76457604  0.64820804  0.81351021     0.35800
C2086       C  0.73114656  0.61990357  0.83100020    -0.26200
C2087       C  0.71107219  0.58407425  0.81434809    -0.15400
C2088       C  0.72506877  0.57719367  0.77949175     0.36900
N2089       N  0.70472267  0.54391762  0.75677425    -0.89700
H2090       H  0.76999937  0.59607694  0.74039824     0.18000
H2091       H  0.72133294  0.62571972  0.85784283     0.18000
N2092       N  0.78362768  0.68501433  0.82957505    -0.88700
H2093       H  0.67839524  0.53856032  0.75299071     0.35400
H2094       H  0.70419458  0.52093726  0.77056139     0.40500
H2095       H  0.78915773  0.68237525  0.85913627     0.40100
H2096       H  0.76643286  0.69581165  0.82892207     0.35000
C2097       C  0.88968493  0.64717751  0.81362955    -0.26800
C2098       C  0.89963017  0.67702592  0.78652241    -0.14800
C2099       C  0.93627026  0.70499566  0.78154183     0.35800
C2100       C  0.96264760  0.70202095  0.80214127    -0.26200
C2101       C  0.95354225  0.67106727  0.82768162    -0.15400
C2102       C  0.91632535  0.64377887  0.83438445     0.36900
N2103       N  0.90563077  0.61254299  0.86143787    -0.89700
H2104       H  0.86125532  0.62589725  0.81751814     0.18000
H2105       H  0.99067638  0.72377511  0.79664426     0.18000
N2106       N  0.94693943  0.73611731  0.75452445    -0.88700
H2107       H  0.87743583  0.59472906  0.86198200     0.35400
H2108       H  0.91282899  0.62334294  0.88979014     0.40500
H2109       H  0.96462187  0.73595324  0.73338171     0.40100
H2110       H  0.96125880  0.76093962  0.77022462     0.35000
C2111       C  0.60728382  0.72132783  0.81458697    -0.26800
C2112       C  0.58407977  0.72725744  0.83840033    -0.14800
C2113       C  0.59308818  0.76421919  0.84651418     0.35800
C2114       C  0.62263911  0.79446602  0.82668638    -0.26200
C2115       C  0.64249685  0.78818216  0.79824029    -0.15400
C2116       C  0.63690809  0.75163462  0.79466097     0.36900
N2117       N  0.65952973  0.74418836  0.76980966    -0.89700
H2118       H  0.60085013  0.69292058  0.80907620     0.18000
H2119       H  0.62756146  0.82259228  0.83028742     0.18000
N2120       N  0.57047524  0.77061483  0.87257089    -0.88700
H2121       H  0.67099538  0.73242331  0.78781539     0.35400
H2122       H  0.68132741  0.76917227  0.75805891     0.40500
H2123       H  0.58036512  0.79941391  0.87464067     0.40100
H2124       H  0.57211949  0.76097566  0.90081723     0.35000
C2125       C  0.89156713  0.62621129  0.71415275    -0.26800
C2126       C  0.89379921  0.65959075  0.70020871    -0.14800
C2127       C  0.91828666  0.68025226  0.66901635     0.35800
C2128       C  0.94201687  0.66927310  0.65488057    -0.26200
C2129       C  0.94215284  0.63798914  0.67123125    -0.15400
C2130       C  0.91584306  0.61544316  0.70032276     0.36900
N2131       N  0.91491737  0.58282786  0.71693044    -0.89700
H2132       H  0.87201386  0.60953639  0.73730643     0.18000
H2133       H  0.96251128  0.68712437  0.63296325     0.18000
N2134       N  0.92104562  0.71394602  0.65336636    -0.88700
H2135       H  0.89357772  0.56899801  0.73752289     0.35400
H2136       H  0.93884228  0.59203863  0.73255866     0.40500
H2137       H  0.91626936  0.71076955  0.62301188     0.40100
H2138       H  0.94756378  0.73624730  0.65722877     0.35000
C2139       C  0.56278648  0.73038935  0.71103834    -0.26800
C2140       C  0.57049954  0.70851201  0.68608713    -0.14800
C2141       C  0.60687008  0.72357533  0.67314635     0.35800
C2142       C  0.63412662  0.75945875  0.68588716    -0.26200
C2143       C  0.62602086  0.78047265  0.71147830    -0.15400
C2144       C  0.58945843  0.76597729  0.72308214     0.36900
N2145       N  0.57785177  0.78678176  0.74601982    -0.89700
H2146       H  0.53528677  0.72026436  0.72115992     0.18000
H2147       H  0.66205469  0.77061721  0.67677557     0.18000
N2148       N  0.61618368  0.70283192  0.64712036    -0.88700
H2149       H  0.56602303  0.77161206  0.77233162     0.35400
H2150       H  0.59941560  0.81302895  0.75355882     0.40500
H2151       H  0.61252634  0.67923898  0.66302768     0.40100
H2152       H  0.64367062  0.71863444  0.63913316     0.35000
C2153       C  0.64944730  0.90178212  0.17483667    -0.26800
C2154       C  0.63780931  0.87068569  0.20078330    -0.14800
C2155       C  0.60030628  0.84413638  0.20511576     0.35800
C2156       C  0.57564147  0.85029883  0.18519320    -0.26200
C2157       C  0.58661279  0.88208810  0.16033262    -0.15400
C2158       C  0.62423615  0.90815565  0.15487191     0.36900
N2159       N  0.63686684  0.94093285  0.12959936    -0.89700
H2160       H  0.67822710  0.92203786  0.17161514     0.18000
H2161       H  0.54717523  0.82956012  0.18997937     0.18000
N2162       N  0.58581913  0.81030601  0.22919779    -0.88700
H2163       H  0.66516541  0.95578924  0.12719175     0.35400
H2164       H  0.63015011  0.95883430  0.14350218     0.40500
H2165       H  0.60589844  0.80685768  0.24181112     0.40100
H2166       H  0.57079941  0.81222040  0.25239857     0.35000
C2167       C  0.61588895  0.86236728  0.31528107    -0.26800
C2168       C  0.64242149  0.88600153  0.28739922    -0.14800
C2169       C  0.64634827  0.92143171  0.27751518     0.35800
C2170       C  0.62038854  0.92961786  0.29146509    -0.26200
C2171       C  0.59168777  0.90399961  0.31622029    -0.15400
C2172       C  0.59048100  0.87093082  0.32949304     0.36900
N2173       N  0.56169227  0.84457756  0.35537237    -0.89700
H2174       H  0.61307007  0.83566781  0.32381871     0.18000
H2175       H  0.62148032  0.95503772  0.28103500     0.18000
N2176       N  0.67563194  0.94926170  0.25289607    -0.88700
H2177       H  0.57326770  0.84049579  0.38064874     0.35400
H2178       H  0.54741174  0.81891112  0.34107453     0.40500
H2179       H  0.69440638  0.94125327  0.24664306     0.40100
H2180       H  0.68969188  0.97373906  0.26920096     0.35000
C2181       C  0.80495144  0.91605797  0.15703300    -0.26800
C2182       C  0.82792619  0.95210324  0.17194483    -0.14800
C2183       C  0.81795130  0.96140077  0.20789204     0.35800
C2184       C  0.78310847  0.93849082  0.22316819    -0.26200
C2185       C  0.76014341  0.90188096  0.20999555    -0.15400
C2186       C  0.77180050  0.89029104  0.17680637     0.36900
N2187       N  0.74997088  0.85300360  0.16250764    -0.89700
H2188       H  0.81183759  0.90849754  0.12928931     0.18000
H2189       H  0.77440921  0.94968925  0.24632998     0.18000
N2190       N  0.84206492  0.99517401  0.22854947    -0.88700
H2191       H  0.76561670  0.84038511  0.16283319     0.35400
H2192       H  0.74359702  0.85500826  0.13312094     0.40500
H2193       H  0.86833741  0.00875845  0.21656047     0.40100
H2194       H  0.83225283  0.01348358  0.22617484     0.35000
C2195       C  0.78323324  0.89503052  0.29756697    -0.26800
C2196       C  0.75279593  0.89898578  0.29993946    -0.14800
C2197       C  0.75474194  0.92862579  0.32137207     0.35800
C2198       C  0.78821948  0.95674686  0.33513216    -0.26200
C2199       C  0.81959868  0.95538744  0.32830071    -0.15400
C2200       C  0.81698367  0.92334400  0.31137677     0.36900
N2201       N  0.84884155  0.92102860  0.30556687    -0.89700
H2202       H  0.78137306  0.87176903  0.28154831     0.18000
H2203       H  0.79011520  0.98102408  0.34895293     0.18000
N2204       N  0.72370913  0.93242008  0.32557352    -0.88700
H2205       H  0.84204695  0.89547336  0.29291047     0.35400
H2206       H  0.86572273  0.94221298  0.28509348     0.40500
H2207       H  0.72996979  0.95822098  0.31268305     0.40100
H2208       H  0.71883390  0.93306424  0.35575130     0.35000
C2209       C  0.67873802  0.75172228  0.34821571    -0.26800
C2210       C  0.65114254  0.71621486  0.33652809    -0.14800
C2211       C  0.62465271  0.71352478  0.31046643     0.35800
C2212       C  0.62795264  0.74658568  0.29403590    -0.26200
C2213       C  0.65845597  0.78212155  0.30172511    -0.15400
C2214       C  0.68274306  0.78458359  0.33105683     0.36900
N2215       N  0.71341727  0.82005049  0.34118285    -0.89700
H2216       H  0.69926622  0.75395739  0.36834789     0.18000
H2217       H  0.60813750  0.74428563  0.27290726     0.18000
N2218       N  0.59625084  0.67745445  0.29815400    -0.88700
H2219       H  0.73690334  0.81931171  0.33541202     0.35400
H2220       H  0.71202075  0.82343788  0.37154587     0.40500
H2221       H  0.59830337  0.67643578  0.26744841     0.40100
H2222       H  0.57146779  0.67518661  0.30480588     0.35000
C2223       C  0.90042551  0.78724495  0.28840110    -0.26800
C2224       C  0.90953185  0.76696308  0.26295091    -0.14800
C2225       C  0.94606573  0.78094392  0.25314292     0.35800
C2226       C  0.97257121  0.81618329  0.26627975    -0.26200
C2227       C  0.96415121  0.83743340  0.29148059    -0.15400
C2228       C  0.92738436  0.82251798  0.30278470     0.36900
N2229       N  0.91741729  0.84279023  0.32871576    -0.89700
H2230       H  0.87214917  0.77610981  0.29595773     0.18000
H2231       H  0.00033302  0.82656054  0.25708648     0.18000
N2232       N  0.95609856  0.75911777  0.22967989    -0.88700
H2233       H  0.88960905  0.82717032  0.33520262     0.35400
H2234       H  0.92215564  0.86705164  0.31333870     0.40500
H2235       H  0.94970203  0.73489401  0.24624846     0.40100
H2236       H  0.98408671  0.77360810  0.22431393     0.35000
C2237       C  0.93232921  0.83047440  0.16156729    -0.26800
C2238       C  0.95868367  0.82756312  0.14007875    -0.14800
C2239       C  0.95214518  0.79125412  0.13157165     0.35800
C2240       C  0.92253479  0.75947939  0.14944822    -0.26200
C2241       C  0.89913750  0.76272761  0.17552620    -0.15400
C2242       C  0.90243870  0.79821609  0.17921553     0.36900
N2243       N  0.87627437  0.80175617  0.20189941    -0.89700
H2244       H  0.93643521  0.85796342  0.16742516     0.18000
H2245       H  0.91962940  0.73234577  0.14535878     0.18000
N2246       N  0.97604835  0.78564953  0.10668925    -0.88700
H2247       H  0.88997504  0.82163622  0.22357999     0.35400
H2248       H  0.86441727  0.81251276  0.18305585     0.40500
H2249       H  0.99517436  0.81063877  0.09222055     0.40100
H2250       H  0.96045367  0.76785635  0.08413261     0.35000
C2251       C  0.78672670  0.70501578  0.28211540    -0.26800
C2252       C  0.79129453  0.67429381  0.28005277    -0.14800
C2253       C  0.76737518  0.64077181  0.30106073     0.35800
C2254       C  0.73740197  0.63767418  0.32148139    -0.26200
C2255       C  0.73117826  0.66780009  0.32158992    -0.15400
C2256       C  0.75747250  0.70255043  0.30252627     0.36900
N2257       N  0.75565049  0.73606975  0.30256593    -0.89700
H2258       H  0.80557453  0.73104740  0.26639568     0.18000
H2259       H  0.71842201  0.61117831  0.33621652     0.18000
N2260       N  0.77288313  0.60961089  0.30105653    -0.88700
H2261       H  0.75371856  0.74289195  0.33168657     0.35400
H2262       H  0.73364798  0.73224350  0.28593711     0.40500
H2263       H  0.74965389  0.58637799  0.28997956     0.40100
H2264       H  0.77544481  0.60309911  0.33042980     0.35000
C2265       C  0.91578147  0.61364101  0.28359262    -0.26800
C2266       C  0.89264246  0.59267136  0.31536685    -0.14800
C2267       C  0.86595170  0.60074365  0.32757264     0.35800
C2268       C  0.86134778  0.62727842  0.30637130    -0.26200
C2269       C  0.88185139  0.64551445  0.27202839    -0.15400
C2270       C  0.91069668  0.63998227  0.26193994     0.36900
N2271       N  0.93512729  0.66111690  0.23000086    -0.89700
H2272       H  0.93653280  0.60802405  0.27403358     0.18000
H2273       H  0.84029110  0.63227057  0.31592404     0.18000
N2274       N  0.84260578  0.58188157  0.36112232    -0.88700
H2275       H  0.96112992  0.67701191  0.24153659     0.35400
H2276       H  0.93555264  0.64204571  0.21062052     0.40500
H2277       H  0.85873328  0.58527225  0.38555353     0.40100
H2278       H  0.82643849  0.55323060  0.35561703     0.35000
C2279       C  0.89276945  0.64596534  0.15421112    -0.26800
C2280       C  0.86572885  0.63644891  0.18319406    -0.14800
C2281       C  0.83751632  0.59855628  0.18817456     0.35800
C2282       C  0.83809254  0.57137861  0.16545159    -0.26200
C2283       C  0.86755979  0.57985986  0.14012097    -0.15400
C2284       C  0.89459760  0.61797037  0.13324428     0.36900
N2285       N  0.92432998  0.62811834  0.10635571    -0.89700
H2286       H  0.91394196  0.67506772  0.14986327     0.18000
H2287       H  0.81593159  0.54266019  0.17005893     0.18000
N2288       N  0.80797971  0.58608118  0.21611531    -0.88700
H2289       H  0.94216280  0.65725802  0.10545013     0.35400
H2290       H  0.91364970  0.62072106  0.07803179     0.40500
H2291       H  0.80940162  0.60809897  0.23165154     0.40100
H2292       H  0.81000410  0.56840967  0.23707273     0.35000
C2293       C  0.74974853  0.62683306  0.20316203    -0.26800
C2294       C  0.78010964  0.66216314  0.19264825    -0.14800
C2295       C  0.77598482  0.68535927  0.16485737     0.35800
C2296       C  0.74135593  0.67393377  0.15038927    -0.26200
C2297       C  0.71046779  0.64047770  0.16411243    -0.15400
C2298       C  0.71480434  0.61598625  0.18963691     0.36900
N2299       N  0.68354906  0.58167624  0.20394960    -0.89700
H2300       H  0.75303724  0.60836039  0.22331773     0.18000
H2301       H  0.73788000  0.69304780  0.13121174     0.18000
N2302       N  0.80638209  0.72164848  0.15364491    -0.88700
H2303       H  0.69129469  0.56726498  0.22338955     0.35400
H2304       H  0.67187421  0.56445990  0.17968477     0.40500
H2305       H  0.81391028  0.73815930  0.17874481     0.40100
H2306       H  0.79887080  0.73504622  0.13258774     0.35000
C2307       C  0.63246201  0.75512578  0.19672710    -0.26800
C2308       C  0.66575716  0.78008114  0.21413550    -0.14800
C2309       C  0.69266435  0.77070300  0.21673157     0.35800
C2310       C  0.68533646  0.73590799  0.20331788    -0.26200
C2311       C  0.65168924  0.70990240  0.18667273    -0.15400
C2312       C  0.62491316  0.71983503  0.18328836     0.36900
N2313       N  0.59015497  0.69415035  0.16695205    -0.89700
H2314       H  0.61179923  0.76254846  0.19518576     0.18000
H2315       H  0.70656894  0.72941114  0.20595869     0.18000
N2316       N  0.72765071  0.79684275  0.23249860    -0.88700
H2317       H  0.57398849  0.70616381  0.16595265     0.35400
H2318       H  0.57703280  0.67083725  0.18633981     0.40500
H2319       H  0.72436389  0.79977596  0.26249773     0.40100
H2320       H  0.74500520  0.78629911  0.23077181     0.35000
loop_ 
_geom_bond_atom_site_label_1 
_geom_bond_atom_site_label_2 
_geom_bond_distance 
_geom_bond_site_symmetry_2 
_ccdc_geom_bond_type 
C1            N2   1.367       .  A
C1            N6   1.367       .  A
C1          C159   1.472       .  S
N2            C3   1.360       .  A
C3            N4   1.348       .  A
C3          C557   1.472       .  S
N4            C5   1.351       .  A
C5            N6   1.364       .  A
C5          C571   1.496       .  S
C7            H8   1.111       .  S
C7           C13   1.543       .  S
C7           C12   1.549       .  S
C7           C11   1.537       .  S
C9           H10   1.111       .  S
C9           C15   1.534       .  S
C9           C14   1.537       .  S
C9           C16   1.536       .  S
C11          C14   1.376       .  D
C11         C484   1.484       .  S
C12          C15   1.381       .  D
C12         C529   1.509       .  S
C13          C16   1.378       .  D
C13         C512   1.482       .  S
C14         C501   1.493       .  S
C15         C540   1.475       .  S
C16         C554   1.498       .  S
C17          H18   1.110       .  S
C17          C23   1.528       .  S
C17          C22   1.532       .  S
C17          C21   1.534       .  S
C19          H20   1.109       .  S
C19          C25   1.539       .  S
C19          C24   1.538       .  S
C19          C26   1.547       .  S
C21          C24   1.379       .  D
C21         C473   1.495       .  S
C22          C25   1.371       .  D
C22         C428   1.488       .  S
C23          C26   1.387       .  D
C23         C456   1.480       .  S
C24         C568   1.479       .  S
C25         C414   1.486       .  S
C26         C445   1.509       .  S
C27          N32   1.365       .  A
C27        N1188   1.364   1_455  A
C27         C151   1.465       .  S
N28          C29   1.357       .  A
N28        C1187   1.365       .  A
C29        N1190   1.349       .  A
C29         C498   1.478       .  S
N30          C31   1.355       .  A
N30        C1189   1.349   1_455  A
C31          N32   1.363       .  A
C31         C417   1.496       .  S
C33          N34   1.363       .  A
C33         N618   1.377   1_545  A
C33         C166   1.470       .  S
N34          C35   1.352       .  A
C35          N36   1.342       .  A
C35         C543   1.485       .  S
N36         C617   1.344   1_545  A
C37          N38   1.365       .  A
C37         N616   1.345       .  A
C37         C442   1.478       .  S
N38         C613   1.373       .  A
C39          N44   1.368       .  A
C39        N1200   1.371   1_455  A
C39          C79   1.472       .  S
N40          C41   1.367       .  A
N40        C1199   1.372       .  A
C41        N1202   1.348       .  A
C41         C487   1.499       .  S
N42          C43   1.342       .  A
N42        C1201   1.348   1_455  A
C43          N44   1.358       .  A
C43         C431   1.471       .  S
C45          N46   1.370       .  A
C45         N630   1.357   1_545  A
C45          C80   1.466       .  S
N46          C47   1.367       .  A
C47          N48   1.353       .  A
C47         C526   1.482       .  S
N48         C629   1.352   1_545  A
C49          N50   1.350       .  A
C49         N628   1.353       .  A
C49         C459   1.465       .  S
N50         C625   1.356       .  A
C51          N52   1.363       .  A
C51          N56   1.366       .  A
C51          C81   1.467       .  S
N52          C53   1.352       .  A
C53          N54   1.346       .  A
C53         C470   1.468       .  S
N54          C55   1.349       .  A
C55          N56   1.368       .  A
C55         C515   1.496       .  S
Zr57         O58   2.444       .  S
Zr57         O59   2.476   1_545  S
Zr57         O60   2.438       .  S
Zr57       O1223   2.450   1_455  S
Zr57         O65   2.382       .  S
Zr57         O67   2.423       .  S
Zr57       O1806   2.388   1_445  S
Zr57       O1228   2.411   1_455  S
O58         H114   0.990       .  S
O58         H122   0.991       .  S
O59         C659   1.289       .  A
O60          C81   1.284       .  A
O61         Zr71   2.425       .  S
O61         C660   1.284       .  A
O62         Zr70   2.460       .  S
O62          C81   1.288       .  A
O63       Zr1217   2.452       .  S
O63          C80   1.285       .  A
O64         Zr72   2.400       .  S
O64          C79   1.275       .  A
O65         Zr70   2.400       .  S
O65        Zr652   2.387   1_545  S
O66         Zr71   2.398       .  S
O66       Zr1797   2.386       .  S
O66       Zr1232   2.378       .  S
O66         H101   0.967       .  S
O67         Zr70   2.401       .  S
O67         Zr87   2.378       .  S
O67         H104   0.965       .  S
O68       Zr1217   2.419       .  S
O68        Zr651   2.388   1_545  S
O68       Zr1247   2.400       .  S
Zr69        O674   2.441   1_545  S
Zr69         O88   2.491       .  S
Zr69         O84   2.490       .  S
Zr69       O1836   2.452   1_445  S
Zr69         O76   2.420   1_545  S
Zr69         O77   2.385       .  S
Zr69       O1815   2.406   1_445  S
Zr69       O1238   2.395   1_455  S
Zr70         O89   2.437       .  S
Zr70         O82   2.434       .  S
Zr70         O83   2.440       .  S
Zr70         O76   2.403   1_545  S
Zr70         O77   2.408       .  S
Zr71         O95   2.437       .  S
Zr71        O653   2.435       .  S
Zr71         O97   2.430       .  S
Zr71         O75   2.385       .  S
Zr71        O648   2.382       .  S
Zr71        O658   2.391       .  S
Zr72         O99   2.437   1_455  S
Zr72         O74   2.438       .  S
Zr72       O1258   2.437   1_455  S
Zr72        O645   2.388       .  S
Zr72       O1226   2.378   1_455  S
Zr72       O1235   2.378   1_455  S
Zr72        O656   2.389       .  S
O73        Zr651   2.435   1_545  S
O73         H690   0.990   1_545  S
O74         H105   0.991       .  S
O74         H119   0.990       .  S
O75       Zr1809   2.404       .  S
O75       Zr1232   2.374       .  S
O76        Zr652   2.386       .  S
O76         H682   0.965       .  S
O77         Zr87   2.390       .  S
O78       Zr1229   2.391       .  S
O78        Zr651   2.394   1_545  S
O78       Zr1247   2.377       .  S
O78         H103   0.966       .  S
C79         O639   1.289       .  A
C80         O641   1.283       .  A
O82         H118   0.990       .  S
O83          C85   1.287       .  A
O84          C85   1.292       .  A
C85         C221   1.482       .  S
O86         Zr87   2.440       .  S
O86         H115   0.990       .  S
Zr87         O90   2.438       .  S
Zr87       O1251   2.440   1_455  S
Zr87         O92   2.405       .  S
Zr87       O1228   2.395   1_455  S
Zr87       O1238   2.377   1_455  S
O88          C93   1.293       .  A
O89         H106   0.990       .  S
O89         H121   0.990       .  S
O90         H107   0.990       .  S
O91       Zr1247   2.437       .  S
O91         H111   0.990       .  S
O91         H120   0.990       .  S
O92          C93   1.277       .  A
C93         C189   1.478       .  S
O94        Zr649   2.442       .  S
O94         H117   0.990       .  S
O94        H1273   0.991       .  S
O95         H109   0.990       .  S
O95         H116   0.990       .  S
O96       Zr1809   2.457       .  S
O96         C100   1.289       .  A
O97         C100   1.282       .  A
O98       Zr1232   2.435       .  S
O98         H108   0.990       .  S
O99         H112   0.990       .  S
C100        C227   1.463       .  S
H102        O656   0.966       .  S
H110        O653   0.990       .  S
H113       O1254   0.990       .  S
Zr123       O124   2.442       .  S
Zr123       O126   2.492       .  S
Zr123       O129   2.445       .  S
Zr123      O1285   2.499   1_445  S
Zr123       O133   2.423       .  S
Zr123       O134   2.413       .  S
Zr123       O711   2.386   1_545  S
Zr123      O1292   2.389   1_455  S
O124        H180   0.990       .  S
O124        H188   0.991       .  S
O125      Zr1283   2.494   1_565  S
O125        C725   1.293       .  A
O126        C147   1.293       .  A
O127       Zr137   2.439       .  S
O127        C146   1.284       .  A
O128       Zr136   2.432       .  S
O128        C727   1.285       .  A
O129       C1306   1.287       .  A
O130       Zr138   2.392       .  S
O130        C145   1.275       .  A
O131       Zr136   2.403       .  S
O131       Zr703   2.384       .  S
O131      Zr1298   2.389   1_455  S
O132       Zr137   2.389       .  S
O132      Zr1283   2.390       .  S
O132       Zr718   2.374   1_545  S
O132        H167   0.965       .  S
O133       Zr153   2.394   1_556  S
O133       Zr716   2.407   1_545  S
O133        H170   0.963       .  S
O134       Zr153   2.380   1_556  S
O134      Zr1297   2.387   1_455  S
Zr135      O1900   2.443   1_455  S
Zr135       O154   2.483       .  S
Zr135      O1322   2.460   1_455  S
Zr135       O730   2.448   1_545  S
Zr135       O143   2.383       .  S
Zr135       O144   2.392       .  S
Zr135      O1301   2.410   1_455  S
Zr135      O1882   2.424   1_545  S
Zr136       O148   2.436       .  S
Zr136       O735   2.435   1_556  S
Zr136       O149   2.445   1_556  S
Zr136       O713   2.396       .  S
Zr136      O1302   2.399   1_556  S
Zr136       O723   2.398   1_556  S
Zr137       O161   2.440       .  S
Zr137      O1299   2.435   1_556  S
Zr137       O163   2.428   1_556  S
Zr137       O141   2.383   1_556  S
Zr137      O1294   2.385       .  S
Zr137      O1304   2.405   1_556  S
Zr138       O164   2.434       .  S
Zr138       O165   2.436   1_556  S
Zr138       O140   2.437       .  S
Zr138       O142   2.374   1_556  S
Zr138      O1291   2.385       .  S
Zr138       O712   2.376       .  S
Zr138       O721   2.383   1_556  S
O139      Zr1297   2.435   1_554  S
O139       H1336   0.990       .  S
O140        H171   0.990       .  S
O140        H185   0.990       .  S
O141      Zr1295   2.411       .  S
O141       Zr718   2.385   1_544  S
O142      Zr1875   2.421       .  S
O142      Zr1296   2.393   1_554  S
O142        H168   0.963       .  S
O143       Zr153   2.391       .  S
O143       Zr716   2.395   1_544  S
O144       Zr153   2.381       .  S
O144      Zr1297   2.400   1_454  S
O144        H169   0.967       .  S
C145        C233   1.473       .  S
C145        O705   1.293       .  A
C146       C1355   1.462       .  S
C146       O1289   1.286       .  A
C147        C239   1.481       .  S
C147        O708   1.284       .  A
O148        H184   0.990       .  S
O149        C151   1.286       .  A
O150       Zr715   2.452       .  S
O150        C151   1.287       .  A
O152       Zr153   2.441   1_556  S
O152        H181   0.991       .  S
Zr153       O156   2.438   1_554  S
Zr153       O157   2.442       .  S
Zr153       O158   2.396       .  S
O154        C159   1.290       .  A
O155       Zr716   2.437   1_544  S
O155        H187   0.990       .  S
O155        H752   0.990       .  S
O156        H173   0.989   1_556  S
O157        H177   0.990       .  S
O157        H186   0.990       .  S
O158        C159   1.275       .  A
O160      Zr1875   2.442       .  S
O160        H179   0.991       .  S
O160        H183   0.990       .  S
O161        H175   0.990       .  S
O161        H182   0.990       .  S
O162      Zr1295   2.458       .  S
O162        C166   1.286       .  A
O163        C166   1.284       .  A
O164        H174   0.990       .  S
O165        H178   0.990       .  S
H172        O735   0.990       .  S
H176       O1299   0.990       .  S
C189        N190   1.368       .  A
C189       N1354   1.372   1_455  A
N190        C191   1.363       .  A
C191        N192   1.351       .  A
C191        C400   1.499       .  S
N192       C1353   1.347   1_455  A
C193        N194   1.364       .  A
C193       N1352   1.346       .  A
C193        C389   1.482       .  S
N194       C1349   1.372       .  A
C195        N196   1.358       .  A
C195       N1360   1.364   1_455  A
C195       C1306   1.456       .  S
N196        C197   1.351       .  A
C197        N198   1.351       .  A
C197        C372   1.466       .  S
N198       C1359   1.356   1_455  A
C199        N200   1.363       .  A
C199       N1358   1.356       .  A
C199        C361   1.497       .  S
N200       C1355   1.365       .  A
C201        H202   1.109       .  S
C201        C207   1.525       .  S
C201        C206   1.536       .  S
C201        C205   1.542       .  S
C203        H204   1.110       .  S
C203        C209   1.540       .  S
C203        C208   1.549       .  S
C203        C210   1.554       .  S
C205        C208   1.383       .  D
C205        C333   1.498       .  S
C206        C209   1.375       .  D
C206        C386   1.500       .  S
C207        C210   1.382       .  D
C207        C305   1.493       .  S
C208        C344   1.511       .  S
C209        C358   1.483       .  S
C210        C316   1.492       .  S
C211        H212   1.111       .  S
C211        C217   1.527       .  S
C211        C216   1.533       .  S
C211        C215   1.530       .  S
C213        H214   1.111       .  S
C213        C219   1.547       .  S
C213        C218   1.544       .  S
C213        C220   1.542       .  S
C215        C218   1.377       .  D
C215        C274   1.476       .  S
C216        C219   1.379       .  D
C216        C246   1.500       .  S
C217        C220   1.376       .  D
C217        C375   1.484       .  S
C218        C291   1.494       .  S
C219        C260   1.481       .  S
C220        C403   1.487       .  S
C221        N222   1.360       .  A
C221        N806   1.384   1_545  A
N222        C223   1.349       .  A
C223        N224   1.341       .  A
C223        C330   1.461       .  S
N224        C805   1.347   1_545  A
C225        N226   1.378       .  A
C225        N804   1.345       .  A
C225        C288   1.511       .  S
N226        C801   1.383       .  A
C227        N228   1.359       .  A
C227        N232   1.365       .  A
N228        C229   1.353       .  A
C229        N230   1.352       .  A
C229        C302   1.470       .  S
N230        C231   1.355       .  A
C231        N232   1.364       .  A
C231        C263   1.495       .  S
C233        N234   1.374       .  A
C233        N238   1.370       .  A
N234        C235   1.363       .  A
C235        N236   1.341       .  A
C235        C249   1.479       .  S
N236        C237   1.348       .  A
C237        N238   1.362       .  A
C237        C319   1.495       .  S
C239        N240   1.381       .  A
C239        N824   1.365   1_545  A
N240        C241   1.373       .  A
C241        N242   1.344       .  A
C241        C347   1.499       .  S
N242        C823   1.342   1_545  A
C243        N244   1.352       .  A
C243        N822   1.342       .  A
C243        C277   1.470       .  S
N244        C819   1.362       .  A
C245        C246   1.407       .  A
C245        C250   1.413       .  A
C245        H252   1.077       .  S
C246        C247   1.409       .  A
C247        C248   1.403       .  A
C247        N254   1.432       .  S
C248        C249   1.406       .  A
C248        H253   1.085       .  S
C249        C250   1.409       .  A
C250        N251   1.437       .  S
N251        H255   1.046       .  S
N251        H256   1.046       .  S
N254        H257   1.046       .  S
N254        H258   1.046       .  S
C259        C260   1.395       .  A
C259        C264   1.399       .  A
C259        H266   1.084       .  S
C260        C261   1.408       .  A
C261        C262   1.409       .  A
C261        N268   1.432       .  S
C262        C263   1.409       .  A
C262        H267   1.083       .  S
C263        C264   1.419       .  A
C264        N265   1.433       .  S
N265        H269   1.046       .  S
N265        H270   1.045       .  S
N268        H271   1.045       .  S
N268        H272   1.045       .  S
C273        C274   1.402       .  A
C273        C278   1.403       .  A
C273        H280   1.081       .  S
C274        C275   1.405       .  A
C275        C276   1.395       .  A
C275        N282   1.432       .  S
C276        C277   1.404       .  A
C276        H861   1.084       .  S
C277        C278   1.409       .  A
C278        N279   1.432       .  S
N279        H283   1.046       .  S
N279        H284   1.046       .  S
H281        C856   1.084       .  S
N282        H285   1.045       .  S
N282        H286   1.046       .  S
C287        C288   1.409       .  A
C287        C292   1.417       .  A
C287        H294   1.083       .  S
C288        C289   1.430       .  A
C289        C290   1.395       .  A
C289        N876   1.434       .  S
C290        C291   1.389       .  A
C290        H295   1.084       .  S
C291        C292   1.419       .  A
C292        N293   1.429       .  S
N293        H297   1.042       .  S
N293        H298   1.046       .  S
N296        C869   1.434   1_545  S
N296        H299   1.046       .  S
N296        H300   1.046   1_545  S
C301        C302   1.402       .  A
C301        C306   1.408       .  A
C301        H308   1.084       .  S
C302        C303   1.405       .  A
C303        C304   1.397       .  A
C303        N310   1.433       .  S
C304        C305   1.404       .  A
C304        H309   1.083       .  S
C305        C306   1.413       .  A
C306        N307   1.436       .  S
N307        H311   1.046       .  S
N307        H312   1.045       .  S
N310        H313   1.046       .  S
N310        H314   1.046       .  S
C315        C316   1.409       .  A
C315        C320   1.419       .  A
C315        H322   1.083       .  S
C316        C317   1.416       .  A
C317        C318   1.384       .  A
C317        N324   1.437       .  S
C318        C319   1.406       .  A
C318        H323   1.083       .  S
C319        C320   1.416       .  A
C320        N321   1.436       .  S
N321        H325   1.046       .  S
N321        H326   1.046       .  S
N324        H327   1.035       .  S
N324        H328   1.045       .  S
C329        C330   1.392       .  A
C329        C334   1.399       .  A
C329        H336   1.084       .  S
C330        C331   1.406       .  A
C331        C332   1.399       .  A
C331        N338   1.438       .  S
C332        C333   1.404       .  A
C332        H337   1.082       .  S
C333        C334   1.431       .  A
C334        N335   1.437       .  S
N335        H339   1.045       .  S
N335        H340   1.035       .  S
N338        H341   1.046       .  S
N338        H342   1.046       .  S
C343        C344   1.400       .  A
C343        C348   1.387       .  A
C343        H350   1.083       .  S
C344        C345   1.416       .  A
C345        C346   1.425       .  A
C345        N352   1.430       .  S
C346        C347   1.411       .  A
C346        H351   1.083       .  S
C347        C348   1.424       .  A
C348        N349   1.436       .  S
N349        H353   1.046       .  S
N349        H354   1.043       .  S
N352        H355   1.045       .  S
N352        H356   1.046       .  S
C357        C358   1.402       .  A
C357        C362   1.415       .  A
C357        H364   1.084       .  S
C358        C359   1.402       .  A
C359        C360   1.394       .  A
C359        N366   1.433       .  S
C360        C361   1.409       .  A
C360        H365   1.083       .  S
C361        C362   1.420       .  A
C362        N363   1.437       .  S
N363        H367   1.046       .  S
N363        H368   1.046       .  S
N366        H369   1.045       .  S
N366        H370   1.045       .  S
C371        C372   1.401       .  A
C371        C376   1.402       .  A
C371        H378   1.084       .  S
C372        C373   1.407       .  A
C373        C374   1.399       .  A
C373        N380   1.438       .  S
C374        C375   1.402       .  A
C374        H379   1.083       .  S
C375        C376   1.417       .  A
C376        N377   1.438       .  S
N377        H381   1.045       .  S
N377        H382   1.044       .  S
N380        H383   1.046       .  S
N380        H384   1.046       .  S
C385        C386   1.409       .  A
C385        C390   1.413       .  A
C385        H392   1.083       .  S
C386        C387   1.408       .  A
C387        C388   1.404       .  A
C387        N394   1.432       .  S
C388        C389   1.406       .  A
C388        H393   1.084       .  S
C389        C390   1.411       .  A
C390        N391   1.437       .  S
N391        H395   1.046       .  S
N391        H396   1.045       .  S
N394        H397   1.045       .  S
N394        H398   1.046       .  S
C399        C400   1.410       .  A
C399        C404   1.391       .  A
C399        H406   1.083       .  S
C400        C401   1.417       .  A
C401        C402   1.415       .  A
C401        N408   1.437       .  S
C402        C403   1.405       .  A
C402        H407   1.083       .  S
C403        C404   1.413       .  A
C404        N405   1.438       .  S
N405        H409   1.045       .  S
N405        H410   1.040       .  S
N408        H411   1.046       .  S
N408        H412   1.046       .  S
C413        C414   1.405       .  A
C413        C418   1.415       .  A
C413        H420   1.084       .  S
C414        C415   1.414       .  A
C415        C416   1.390       .  A
C415        N422   1.439       .  S
C416        C417   1.408       .  A
C416        H421   1.083       .  S
C417        C418   1.418       .  A
C418        N419   1.437       .  S
N419        H423   1.046       .  S
N419        H424   1.045       .  S
N422        H425   1.038       .  S
N422        H426   1.046       .  S
C427        C428   1.397       .  A
C427        C432   1.398       .  A
C427        H434   1.084       .  S
C428        C429   1.423       .  A
C429        C430   1.407       .  A
C429        N436   1.438       .  S
C430        C431   1.399       .  A
C430        H435   1.084       .  S
C431        C432   1.411       .  A
C432        N433   1.433       .  S
N433        H437   1.045       .  S
N433        H438   1.046       .  S
N436        H439   1.043       .  S
N436        H440   1.046       .  S
C441        C442   1.405       .  A
C441        C446   1.418       .  A
C441        H448   1.083       .  S
C442        C443   1.414       .  A
C443        C444   1.386       .  A
C443        N450   1.440       .  S
C444        C445   1.402       .  A
C444        H449   1.078       .  S
C445        C446   1.418       .  A
C446        N447   1.430       .  S
N447        H451   1.045       .  S
N447        H452   1.046       .  S
N450        H453   1.045       .  S
N450        H454   1.045       .  S
C455        C456   1.406       .  A
C455        C460   1.406       .  A
C455        H462   1.084       .  S
C456        C457   1.406       .  A
C457        C458   1.394       .  A
C457        N464   1.431       .  S
C458        C459   1.399       .  A
C458        H463   1.084       .  S
C459        C460   1.410       .  A
C460        N461   1.438       .  S
N461        H465   1.046       .  S
N461        H466   1.046       .  S
N464        H467   1.045       .  S
N464        H468   1.045       .  S
C469        C470   1.398       .  A
C469        C474   1.397       .  A
C469        H476   1.084       .  S
C470        C471   1.404       .  A
C471        C472   1.406       .  A
C471        N478   1.432       .  S
C472        C473   1.409       .  A
C472        H477   1.082       .  S
C473        C474   1.411       .  A
C474        N475   1.430       .  S
N475        H479   1.046       .  S
N475        H480   1.045       .  S
N478        H481   1.046       .  S
N478        H482   1.045       .  S
C483        C484   1.404       .  A
C483        C488   1.416       .  A
C483        H490   1.084       .  S
C484        C485   1.403       .  A
C485        C486   1.395       .  A
C485        N492   1.439       .  S
C486        C487   1.414       .  A
C486        H491   1.083       .  S
C487        C488   1.416       .  A
C488        N489   1.436       .  S
N489        H493   1.046       .  S
N489        H494   1.046       .  S
N492        H495   1.045       .  S
N492        H496   1.046       .  S
C497        C498   1.402       .  A
C497        C502   1.408       .  A
C497        H504   1.084       .  S
C498        C499   1.418       .  A
C499        C500   1.399       .  A
C499        N506   1.439       .  S
C500        C501   1.399       .  A
C500        H505   1.079       .  S
C501        C502   1.412       .  A
C502        N503   1.431       .  S
N503        H507   1.045       .  S
N503        H508   1.045       .  S
N506        H509   1.044       .  S
N506        H510   1.046       .  S
C511        C512   1.394       .  A
C511        C516   1.392       .  A
C511        H518   1.085       .  S
C512        C513   1.411       .  A
C513        C514   1.409       .  A
C513        N520   1.435       .  S
C514        C515   1.407       .  A
C514        H519   1.083       .  S
C515        C516   1.430       .  A
C516        N517   1.433       .  S
N517        H521   1.045       .  S
N517        H522   1.044       .  S
N520        H523   1.042       .  S
N520        H524   1.045       .  S
C525        C526   1.401       .  A
C525        C530   1.412       .  A
C525        H532   1.084       .  S
C526        C527   1.417       .  A
C527        C528   1.402       .  A
C527        N534   1.439       .  S
C528        C529   1.402       .  A
C528        H533   1.076       .  S
C529        C530   1.417       .  A
C530        N531   1.430       .  S
N531        H535   1.045       .  S
N531        H536   1.045       .  S
N534        H537   1.044       .  S
N534        H538   1.046       .  S
C539        C540   1.405       .  A
C539        C544   1.409       .  A
C539        H546   1.080       .  S
C540        C541   1.410       .  A
C541        C542   1.385       .  A
C541        N548   1.438       .  S
C542        C543   1.408       .  A
C542        H547   1.083       .  S
C543        C544   1.413       .  A
C544        N545   1.437       .  S
N545        H549   1.046       .  S
N545        H550   1.046       .  S
N548        H551   1.037       .  S
N548        H552   1.046       .  S
C553        C554   1.409       .  A
C553        C558   1.409       .  A
C553        H560   1.078       .  S
C554        C555   1.411       .  A
C555        C556   1.405       .  A
C555        N562   1.437       .  S
C556        C557   1.403       .  A
C556        H561   1.084       .  S
C557        C558   1.404       .  A
C558        N559   1.437       .  S
N559        H563   1.046       .  S
N559        H564   1.046       .  S
N562        H565   1.045       .  S
N562        H566   1.046       .  S
C567        C568   1.402       .  A
C567        C572   1.410       .  A
C567        H574   1.083       .  S
C568        C569   1.404       .  A
C569        C570   1.399       .  A
C569        N576   1.440       .  S
C570        C571   1.414       .  A
C570        H575   1.082       .  S
C571        C572   1.416       .  A
C572        N573   1.436       .  S
N573        H577   1.046       .  S
N573        H578   1.046       .  S
N576        H579   1.043       .  S
N576        H580   1.045       .  S
C581        N582   1.369       .  A
C581        N586   1.370       .  A
C581        C739   1.476       .  S
N582        C583   1.361       .  A
C583        N584   1.346       .  A
C583       C1137   1.475       .  S
N584        C585   1.350       .  A
C585        N586   1.366       .  A
C585       C1151   1.499       .  S
C587        H588   1.111       .  S
C587        C593   1.544       .  S
C587        C592   1.547       .  S
C587        C591   1.537       .  S
C589        H590   1.111       .  S
C589        C595   1.534       .  S
C589        C594   1.535       .  S
C589        C596   1.534       .  S
C591        C594   1.374       .  D
C591       C1064   1.481       .  S
C592        C595   1.380       .  D
C592       C1109   1.509       .  S
C593        C596   1.379       .  D
C593       C1092   1.483       .  S
C594       C1081   1.492       .  S
C595       C1120   1.473       .  S
C596       C1134   1.497       .  S
C597        H598   1.110       .  S
C597        C603   1.528       .  S
C597        C602   1.532       .  S
C597        C601   1.538       .  S
C599        H600   1.110       .  S
C599        C605   1.538       .  S
C599        C604   1.540       .  S
C599        C606   1.549       .  S
C601        C604   1.380       .  D
C601       C1053   1.501       .  S
C602        C605   1.373       .  D
C602       C1008   1.488       .  S
C603        C606   1.387       .  D
C603       C1036   1.481       .  S
C604       C1148   1.482       .  S
C605        C994   1.486       .  S
C606       C1025   1.512       .  S
C607       N1768   1.367       .  A
C607        N612   1.367       .  A
C607        C731   1.470       .  S
N608       C1767   1.365       .  A
N608        C609   1.356       .  A
C609       N1770   1.348       .  A
C609       C1078   1.477       .  S
N610       C1769   1.348   1_455  A
N610        C611   1.355       .  A
C611        N612   1.365       .  A
C611        C997   1.498       .  S
C613        N614   1.362       .  A
C613        C746   1.465       .  S
N614        C615   1.352       .  A
C615        N616   1.342       .  A
C615       C1123   1.484       .  S
C617        N618   1.368       .  A
C617       C1022   1.487       .  S
C619       N1780   1.370   1_455  A
C619        N624   1.366       .  A
C619        C659   1.470       .  S
N620       C1779   1.372       .  A
N620        C621   1.366       .  A
C621       N1782   1.348       .  A
C621       C1067   1.499       .  S
N622       C1781   1.350   1_455  A
N622        C623   1.345       .  A
C623        N624   1.357       .  A
C623       C1011   1.470       .  S
C625        N626   1.370       .  A
C625        C660   1.466       .  S
N626        C627   1.367       .  A
C627        N628   1.354       .  A
C627       C1106   1.483       .  S
C629        N630   1.351       .  A
C629       C1039   1.466       .  S
C631        N632   1.363       .  A
C631        N636   1.369       .  A
C631        C661   1.472       .  S
N632        C633   1.352       .  A
C633        N634   1.346       .  A
C633       C1050   1.470       .  S
N634        C635   1.350       .  A
C635        N636   1.371       .  A
C635       C1095   1.500       .  S
Zr637       O638   2.443       .  S
Zr637       O639   2.477       .  S
Zr637       O640   2.445       .  S
Zr637      O1803   2.456   1_455  S
Zr637       O645   2.384       .  S
Zr637      O1226   2.391   1_455  S
Zr637       O647   2.426       .  S
Zr637      O1808   2.412   1_455  S
O638        H694   0.990       .  S
O638        H702   0.991       .  S
O640        C661   1.285       .  A
O641       Zr651   2.420   1_545  S
O642       Zr650   2.463       .  S
O642        C661   1.289       .  A
O643      Zr1797   2.449       .  S
O643        C660   1.284       .  A
O644       Zr652   2.397       .  S
O644        C659   1.275       .  A
O645       Zr650   2.399       .  S
O646      Zr1217   2.388   1_565  S
O646       Zr651   2.399       .  S
O646      Zr1812   2.378       .  S
O646        H681   0.966       .  S
O647       Zr650   2.403       .  S
O647       Zr667   2.384       .  S
O647        H684   0.964       .  S
O648      Zr1797   2.408       .  S
O648      Zr1827   2.394       .  S
Zr649       O668   2.498       .  S
Zr649      O1256   2.443   1_455  S
Zr649       O664   2.485       .  S
Zr649      O1235   2.407   1_455  S
Zr649       O656   2.423       .  S
Zr649       O657   2.385       .  S
Zr649      O1818   2.391   1_455  S
Zr650       O669   2.436       .  S
Zr650       O662   2.435       .  S
Zr650       O663   2.435       .  S
Zr650       O656   2.400       .  S
Zr650       O657   2.408       .  S
Zr651       O675   2.436       .  S
Zr651       O677   2.434       .  S
Zr651       O655   2.381       .  S
Zr652      O1838   2.436   1_455  S
Zr652       O679   2.437   1_455  S
Zr652       O654   2.437       .  S
Zr652      O1806   2.379   1_455  S
Zr652      O1815   2.378   1_455  S
O654        H685   0.990       .  S
O654        H699   0.990       .  S
O655      Zr1229   2.406   1_565  S
O655      Zr1812   2.379       .  S
O657       Zr667   2.390       .  S
O658      Zr1809   2.394       .  S
O658      Zr1827   2.376       .  S
O658        H683   0.965       .  S
O662        H698   0.990       .  S
O663        C665   1.286       .  A
O664        C665   1.291       .  A
C665        C801   1.479       .  S
O666       Zr667   2.439       .  S
O666        H695   0.990       .  S
Zr667       O670   2.436       .  S
Zr667      O1831   2.441   1_455  S
Zr667       O672   2.404       .  S
Zr667      O1808   2.393   1_455  S
Zr667      O1818   2.374   1_455  S
O668        C673   1.294       .  A
O669        H686   0.990       .  S
O669        H701   0.990       .  S
O670        H687   0.990       .  S
O671      Zr1827   2.441       .  S
O671        H691   0.990       .  S
O671        H700   0.990       .  S
O672        C673   1.277       .  A
C673        C769   1.482       .  S
O674       H1853   0.990       .  S
O674        H697   0.990   1_565  S
O675        H689   0.990       .  S
O675        H696   0.990       .  S
O676      Zr1229   2.447   1_565  S
O676        C680   1.287       .  A
O677        C680   1.283       .  A
O678      Zr1812   2.435       .  S
O678        H688   0.990       .  S
O679        H692   0.990       .  S
C680        C807   1.463       .  S
H693       O1834   0.991       .  S
Zr703       O704   2.442       .  S
Zr703      O1865   2.489   1_455  S
Zr703       O706   2.479       .  S
Zr703       O709   2.439       .  S
Zr703      O1872   2.392   1_455  S
Zr703       O713   2.419       .  S
Zr703       O714   2.408       .  S
O704        H760   0.990       .  S
O704        H768   0.991       .  S
O705      Zr1863   2.493       .  S
O706        C727   1.289       .  A
O707       Zr717   2.435       .  S
O707        C726   1.283       .  A
O708       Zr716   2.426   1_545  S
O709       C1886   1.285       .  A
O710       Zr718   2.396       .  S
O710        C725   1.275       .  A
O711       Zr716   2.410       .  S
O711      Zr1878   2.389   1_455  S
O712      Zr1863   2.389       .  S
O712       Zr717   2.389       .  S
O712        H747   0.965       .  S
O713       Zr733   2.386   1_556  S
O713        H750   0.963       .  S
O714      Zr1877   2.385   1_455  S
O714       Zr733   2.382   1_556  S
Zr715      O1320   2.441   1_455  S
Zr715       O734   2.493       .  S
Zr715      O1902   2.471   1_455  S
Zr715      O1881   2.409   1_455  S
Zr715      O1302   2.424       .  S
Zr715       O723   2.384       .  S
Zr715       O724   2.393       .  S
Zr716       O728   2.433       .  S
Zr716       O729   2.455   1_556  S
Zr716      O1882   2.395   1_556  S
Zr717      O1879   2.435   1_556  S
Zr717       O741   2.441       .  S
Zr717       O743   2.418   1_556  S
Zr717      O1874   2.384       .  S
Zr717       O721   2.382   1_556  S
Zr717      O1884   2.406   1_556  S
Zr718       O744   2.436       .  S
Zr718       O745   2.436   1_556  S
Zr718       O720   2.437       .  S
Zr718      O1871   2.388       .  S
Zr718       O722   2.373   1_556  S
O719      Zr1877   2.436   1_554  S
O719       H1916   0.990       .  S
O720        H751   0.990       .  S
O720        H765   0.990       .  S
O721      Zr1875   2.411       .  S
O722      Zr1295   2.423   1_565  S
O722      Zr1876   2.391   1_554  S
O722        H748   0.964       .  S
O723       Zr733   2.388       .  S
O724      Zr1877   2.402   1_454  S
O724       Zr733   2.382       .  S
O724        H749   0.966       .  S
C725        C813   1.476       .  S
C726       C1935   1.464       .  S
C726       O1869   1.287       .  A
C727        C819   1.477       .  S
O728        H764   0.990       .  S
O729        C731   1.287       .  A
O730        C731   1.286       .  A
O732       Zr733   2.439   1_556  S
O732        H761   0.991       .  S
Zr733       O736   2.438   1_554  S
Zr733       O737   2.439       .  S
Zr733       O738   2.393       .  S
O734        C739   1.293       .  A
O735        H767   0.990       .  S
O736        H753   0.990   1_556  S
O737        H757   0.990       .  S
O737        H766   0.989   1_554  S
O738        C739   1.274       .  A
O740      Zr1295   2.442       .  S
O740        H759   0.991   1_545  S
O740        H763   0.990       .  S
O741        H755   0.990       .  S
O741        H762   0.990       .  S
O742      Zr1875   2.460       .  S
O742        C746   1.287       .  A
O743        C746   1.283       .  A
O744        H754   0.990   1_556  S
O745        H758   0.991       .  S
H756       O1879   0.990       .  S
C769        N770   1.370       .  A
C769       N1934   1.371   1_455  A
N770        C771   1.365       .  A
C771        N772   1.352       .  A
C771        C980   1.502       .  S
N772       C1933   1.347   1_455  A
C773       N1932   1.348       .  A
C773        N774   1.362       .  A
C773        C969   1.478       .  S
N774       C1929   1.369       .  A
C775        N776   1.360       .  A
C775       N1940   1.363   1_455  A
C775       C1886   1.458       .  S
N776        C777   1.353       .  A
C777        N778   1.351       .  A
C777        C952   1.471       .  S
N778       C1939   1.356   1_455  A
C779       N1938   1.355       .  A
C779        N780   1.363       .  A
C779        C941   1.496       .  S
N780       C1935   1.365       .  A
C781        H782   1.109       .  S
C781        C787   1.524       .  S
C781        C786   1.536       .  S
C781        C785   1.537       .  S
C783        H784   1.110       .  S
C783        C789   1.539       .  S
C783        C788   1.549       .  S
C783        C790   1.551       .  S
C785        C788   1.384       .  D
C785        C913   1.494       .  S
C786        C789   1.375       .  D
C786        C966   1.499       .  S
C787        C790   1.380       .  D
C787        C885   1.489       .  S
C788        C924   1.511       .  S
C789        C938   1.481       .  S
C790        C896   1.490       .  S
C791        H792   1.111       .  S
C791        C797   1.531       .  S
C791        C796   1.536       .  S
C791        C795   1.533       .  S
C793        H794   1.111       .  S
C793        C799   1.548       .  S
C793        C798   1.546       .  S
C793        C800   1.543       .  S
C795        C798   1.377       .  D
C795        C854   1.480       .  S
C796        C799   1.378       .  D
C796        C826   1.504       .  S
C797        C800   1.377       .  D
C797        C955   1.487       .  S
C798        C871   1.496       .  S
C799        C840   1.480       .  S
C800        C983   1.493       .  S
C801        N802   1.359       .  A
N802        C803   1.348       .  A
C803        N804   1.339       .  A
C803        C910   1.458       .  S
C805        N806   1.379       .  A
C805        C868   1.514       .  S
C807        N808   1.360       .  A
C807        N812   1.365       .  A
N808        C809   1.353       .  A
C809        N810   1.352       .  A
C809        C882   1.469       .  S
N810        C811   1.354       .  A
C811        N812   1.364       .  A
C811        C843   1.493       .  S
C813        N814   1.374       .  A
C813        N818   1.371       .  A
N814        C815   1.363       .  A
C815        N816   1.341       .  A
C815        C829   1.482       .  S
N816        C817   1.347       .  A
C817        N818   1.363       .  A
C817        C899   1.497       .  S
C819        N820   1.380       .  A
N820        C821   1.372       .  A
C821        N822   1.345       .  A
C821        C927   1.495       .  S
C823        N824   1.354       .  A
C823        C857   1.473       .  S
C825        C826   1.411       .  A
C825        C830   1.419       .  A
C825        H832   1.079       .  S
C826        C827   1.408       .  A
C827        C828   1.402       .  A
C827        N834   1.432       .  S
C828        C829   1.405       .  A
C828        H833   1.085       .  S
C829        C830   1.410       .  A
C830        N831   1.437       .  S
N831        H835   1.046       .  S
N831        H836   1.045       .  S
N834        H837   1.045       .  S
N834        H838   1.046       .  S
C839        C840   1.396       .  A
C839        C844   1.399       .  A
C839        H846   1.084       .  S
C840        C841   1.406       .  A
C841        C842   1.408       .  A
C841        N848   1.431       .  S
C842        C843   1.409       .  A
C842        H847   1.083       .  S
C843        C844   1.419       .  A
C844        N845   1.433       .  S
N845        H849   1.046       .  S
N845        H850   1.045       .  S
N848        H851   1.045       .  S
N848        H852   1.045       .  S
C853        C854   1.404       .  A
C853        C858   1.406       .  A
C853        H860   1.081       .  S
C854        C855   1.405       .  A
C855        C856   1.396       .  A
C855        N862   1.432       .  S
C856        C857   1.404       .  A
C857        C858   1.408       .  A
C858        N859   1.432       .  S
N859        H863   1.046       .  S
N859        H864   1.046       .  S
N862        H865   1.046       .  S
N862        H866   1.045       .  S
C867        C868   1.410       .  A
C867        C872   1.418       .  A
C867        H874   1.083       .  S
C868        C869   1.430       .  A
C869        C870   1.396       .  A
C870        C871   1.390       .  A
C870        H875   1.084       .  S
C871        C872   1.419       .  A
C872        N873   1.430       .  S
N873        H877   1.042       .  S
N873        H878   1.046       .  S
N876        H879   1.046       .  S
N876        H880   1.046       .  S
C881        C882   1.402       .  A
C881        C886   1.408       .  A
C881        H888   1.083       .  S
C882        C883   1.405       .  A
C883        C884   1.396       .  A
C883        N890   1.433       .  S
C884        C885   1.403       .  A
C884        H889   1.083       .  S
C885        C886   1.411       .  A
C886        N887   1.436       .  S
N887        H891   1.045       .  S
N887        H892   1.045       .  S
N890        H893   1.045       .  S
N890        H894   1.046       .  S
C895        C896   1.408       .  A
C895        C900   1.418       .  A
C895        H902   1.083       .  S
C896        C897   1.415       .  A
C897        C898   1.385       .  A
C897        N904   1.437       .  S
C898        C899   1.408       .  A
C898        H903   1.083       .  S
C899        C900   1.416       .  A
C900        N901   1.436       .  S
N901        H905   1.046       .  S
N901        H906   1.046       .  S
N904        H907   1.034       .  S
N904        H908   1.046       .  S
C909        C910   1.392       .  A
C909        C914   1.398       .  A
C909        H916   1.084       .  S
C910        C911   1.406       .  A
C911        C912   1.397       .  A
C911        N918   1.438       .  S
C912        C913   1.404       .  A
C912        H917   1.083       .  S
C913        C914   1.430       .  A
C914        N915   1.437       .  S
N915        H919   1.046       .  S
N915        H920   1.034       .  S
N918        H921   1.046       .  S
N918        H922   1.045       .  S
C923        C924   1.399       .  A
C923        C928   1.385       .  A
C923        H930   1.082       .  S
C924        C925   1.417       .  A
C925        C926   1.425       .  A
C925        N932   1.431       .  S
C926        C927   1.411       .  A
C926        H931   1.083       .  S
C927        C928   1.421       .  A
C928        N929   1.436       .  S
N929        H933   1.046       .  S
N929        H934   1.043       .  S
N932        H935   1.046       .  S
N932        H936   1.045       .  S
C937        C938   1.400       .  A
C937        C942   1.413       .  A
C937        H944   1.083       .  S
C938        C939   1.403       .  A
C939        C940   1.394       .  A
C939        N946   1.433       .  S
C940        C941   1.410       .  A
C940        H945   1.083       .  S
C941        C942   1.420       .  A
C942        N943   1.436       .  S
N943        H947   1.046       .  S
N943        H948   1.045       .  S
N946        H949   1.046       .  S
N946        H950   1.045       .  S
C951        C952   1.401       .  A
C951        C956   1.403       .  A
C951        H958   1.084       .  S
C952        C953   1.409       .  A
C953        C954   1.401       .  A
C953        N960   1.438       .  S
C954        C955   1.402       .  A
C954        H959   1.083       .  S
C955        C956   1.418       .  A
C956        N957   1.438       .  S
N957        H961   1.045       .  S
N957        H962   1.044       .  S
N960        H963   1.046       .  S
N960        H964   1.045       .  S
C965        C966   1.410       .  A
C965        C970   1.413       .  A
C965        H972   1.083       .  S
C966        C967   1.408       .  A
C967        C968   1.402       .  A
C967        N974   1.432       .  S
C968        C969   1.404       .  A
C968        H973   1.084       .  S
C969        C970   1.409       .  A
C970        N971   1.437       .  S
N971        H975   1.046       .  S
N971        H976   1.045       .  S
N974        H977   1.046       .  S
N974        H978   1.045       .  S
C979        C980   1.410       .  A
C979        C984   1.393       .  A
C979        H986   1.083       .  S
C980        C981   1.417       .  A
C981        C982   1.417       .  A
C981        N988   1.436       .  S
C982        C983   1.407       .  A
C982        H987   1.083       .  S
C983        C984   1.414       .  A
C984        N985   1.438       .  S
N985        H989   1.044       .  S
N985        H990   1.040       .  S
N988        H991   1.045       .  S
N988        H992   1.046       .  S
C993        C994   1.406       .  A
C993        C998   1.416       .  A
C993       H1000   1.084       .  S
C994        C995   1.413       .  A
C995        C996   1.389       .  A
C995       N1002   1.439       .  S
C996        C997   1.409       .  A
C996       H1001   1.083       .  S
C997        C998   1.418       .  A
C998        N999   1.436       .  S
N999       H1003   1.046       .  S
N999       H1004   1.045       .  S
N1002      H1005   1.039       .  S
N1002      H1006   1.046       .  S
C1007      C1008   1.398       .  A
C1007      C1012   1.398       .  A
C1007      H1014   1.084       .  S
C1008      C1009   1.423       .  A
C1009      C1010   1.407       .  A
C1009      N1016   1.438       .  S
C1010      C1011   1.399       .  A
C1010      H1015   1.084       .  S
C1011      C1012   1.408       .  A
C1012      N1013   1.433       .  S
N1013      H1017   1.046       .  S
N1013      H1018   1.046       .  S
N1016      H1019   1.044       .  S
N1016      H1020   1.046       .  S
C1021      C1022   1.407       .  A
C1021      C1026   1.422       .  A
C1021      H1028   1.083       .  S
C1022      C1023   1.416       .  A
C1023      C1024   1.389       .  A
C1023      N1030   1.440       .  S
C1024      C1025   1.402       .  A
C1024      H1029   1.079       .  S
C1025      C1026   1.418       .  A
C1026      N1027   1.430       .  S
N1027      H1031   1.046       .  S
N1027      H1032   1.045       .  S
N1030      H1033   1.045   1_565  S
N1030      H1034   1.045   1_565  S
C1035      C1036   1.405       .  A
C1035      C1040   1.405       .  A
C1035      H1042   1.084       .  S
C1036      C1037   1.407       .  A
C1037      C1038   1.395       .  A
C1037      N1044   1.432       .  S
C1038      C1039   1.400       .  A
C1038      H1043   1.084       .  S
C1039      C1040   1.410       .  A
C1040      N1041   1.437       .  S
N1041      H1045   1.046       .  S
N1041      H1046   1.046       .  S
N1044      H1047   1.045       .  S
N1044      H1048   1.045       .  S
C1049      C1050   1.399       .  A
C1049      C1054   1.399       .  A
C1049      H1056   1.084       .  S
C1050      C1051   1.404       .  A
C1051      C1052   1.407       .  A
C1051      N1058   1.432       .  S
C1052      C1053   1.409       .  A
C1052      H1057   1.082       .  S
C1053      C1054   1.413       .  A
C1054      N1055   1.430       .  S
N1055      H1059   1.046       .  S
N1055      H1060   1.046       .  S
N1058      H1061   1.046       .  S
N1058      H1062   1.045       .  S
C1063      C1064   1.403       .  A
C1063      C1068   1.414       .  A
C1063      H1070   1.084       .  S
C1064      C1065   1.403       .  A
C1065      C1066   1.395       .  A
C1065      N1072   1.439       .  S
C1066      C1067   1.415       .  A
C1066      H1071   1.083       .  S
C1067      C1068   1.417       .  A
C1068      N1069   1.436       .  S
N1069      H1073   1.046       .  S
N1069      H1074   1.046       .  S
N1072      H1075   1.044       .  S
N1072      H1076   1.046       .  S
C1077      C1078   1.402       .  A
C1077      C1082   1.407       .  A
C1077      H1084   1.084       .  S
C1078      C1079   1.418       .  A
C1079      C1080   1.399       .  A
C1079      N1086   1.439       .  S
C1080      C1081   1.398       .  A
C1080      H1085   1.079       .  S
C1081      C1082   1.412       .  A
C1082      N1083   1.431       .  S
N1083      H1087   1.045       .  S
N1083      H1088   1.045       .  S
N1086      H1089   1.044       .  S
N1086      H1090   1.046       .  S
C1091      C1092   1.392       .  A
C1091      C1096   1.392       .  A
C1091      H1098   1.085       .  S
C1092      C1093   1.411       .  A
C1093      C1094   1.411       .  A
C1093      N1100   1.436       .  S
C1094      C1095   1.408       .  A
C1094      H1099   1.083       .  S
C1095      C1096   1.432       .  A
C1096      N1097   1.433       .  S
N1097      H1101   1.045       .  S
N1097      H1102   1.045       .  S
N1100      H1103   1.041       .  S
N1100      H1104   1.045       .  S
C1105      C1106   1.401       .  A
C1105      C1110   1.413       .  A
C1105      H1112   1.084       .  S
C1106      C1107   1.414       .  A
C1107      C1108   1.401       .  A
C1107      N1114   1.433       .  S
C1108      C1109   1.403       .  A
C1108      H1113   1.079       .  S
C1109      C1110   1.419       .  A
C1110      N1111   1.430       .  S
N1111      H1115   1.045       .  S
N1111      H1116   1.045       .  S
N1114      H1117   1.046       .  S
N1114      H1118   1.044       .  S
C1119      C1120   1.403       .  A
C1119      C1124   1.407       .  A
C1119      H1126   1.080       .  S
C1120      C1121   1.411       .  A
C1121      C1122   1.386       .  A
C1121      N1128   1.438       .  S
C1122      C1123   1.408       .  A
C1122      H1127   1.083       .  S
C1123      C1124   1.412       .  A
C1124      N1125   1.437       .  S
N1125      H1129   1.046       .  S
N1125      H1130   1.046       .  S
N1128      H1131   1.036       .  S
N1128      H1132   1.046       .  S
C1133      C1134   1.408       .  A
C1133      C1138   1.409       .  A
C1133      H1140   1.078       .  S
C1134      C1135   1.411       .  A
C1135      C1136   1.405       .  A
C1135      N1142   1.436       .  S
C1136      C1137   1.404       .  A
C1136      H1141   1.084       .  S
C1137      C1138   1.405       .  A
C1138      N1139   1.436       .  S
N1139      H1143   1.046       .  S
N1139      H1144   1.046       .  S
N1142      H1145   1.044       .  S
N1142      H1146   1.045       .  S
C1147      C1148   1.405       .  A
C1147      C1152   1.414       .  A
C1147      H1154   1.083       .  S
C1148      C1149   1.402       .  A
C1149      C1150   1.398       .  A
C1149      N1156   1.440       .  S
C1150      C1151   1.414       .  A
C1150      H1155   1.082       .  S
C1151      C1152   1.416       .  A
C1152      N1153   1.437       .  S
N1153      H1157   1.046       .  S
N1153      H1158   1.046       .  S
N1156      H1159   1.043       .  S
N1156      H1160   1.045       .  S
C1161      N1162   1.368       .  A
C1161      N1166   1.370       .  A
C1161      C1319   1.478       .  S
N1162      C1163   1.361       .  A
C1163      N1164   1.346       .  A
C1163      C1717   1.472       .  S
N1164      C1165   1.349       .  A
C1165      N1166   1.366       .  A
C1165      C1731   1.500       .  S
C1167      H1168   1.111       .  S
C1167      C1173   1.540       .  S
C1167      C1172   1.551       .  S
C1167      C1171   1.534       .  S
C1169      H1170   1.111       .  S
C1169      C1175   1.534       .  S
C1169      C1174   1.538       .  S
C1169      C1176   1.535       .  S
C1171      C1174   1.375       .  D
C1171      C1644   1.480       .  S
C1172      C1175   1.381       .  D
C1172      C1689   1.506       .  S
C1173      C1176   1.378       .  D
C1173      C1672   1.483       .  S
C1174      C1661   1.492       .  S
C1175      C1700   1.480       .  S
C1176      C1714   1.494       .  S
C1177      H1178   1.111       .  S
C1177      C1183   1.526       .  S
C1177      C1182   1.529       .  S
C1177      C1181   1.533       .  S
C1179      H1180   1.109       .  S
C1179      C1185   1.541       .  S
C1179      C1184   1.539       .  S
C1179      C1186   1.550       .  S
C1181      C1184   1.379       .  D
C1181      C1633   1.490       .  S
C1182      C1185   1.373       .  D
C1182      C1588   1.485       .  S
C1183      C1186   1.386       .  D
C1183      C1616   1.481       .  S
C1184      C1728   1.486       .  S
C1185      C1574   1.488       .  S
C1186      C1605   1.508       .  S
C1187      N1192   1.367       .  A
C1187      C1311   1.471       .  S
N1188      C1189   1.355       .  A
C1189      C1658   1.477       .  S
N1190      C1191   1.354       .  A
C1191      N1192   1.365       .  A
C1191      C1577   1.500       .  S
C1193      N1194   1.364       .  A
C1193      N1778   1.373   1_545  A
C1193      C1326   1.466       .  S
N1194      C1195   1.353       .  A
C1195      N1196   1.343       .  A
C1195      C1703   1.487       .  S
N1196      C1777   1.346   1_545  A
C1197      N1776   1.345       .  A
C1197      N1198   1.366       .  A
C1197      C1602   1.481       .  S
N1198      C1773   1.374       .  A
C1199      N1204   1.367       .  A
C1199      C1239   1.473       .  S
N1200      C1201   1.365       .  A
C1201      C1647   1.496       .  S
N1202      C1203   1.343       .  A
C1203      N1204   1.358       .  A
C1203      C1591   1.470       .  S
C1205      N1206   1.369       .  A
C1205      N1790   1.358   1_545  A
C1205      C1240   1.467       .  S
N1206      C1207   1.367       .  A
C1207      N1208   1.353       .  A
C1207      C1686   1.480       .  S
N1208      C1789   1.351   1_545  A
C1209      N1788   1.351       .  A
C1209      N1210   1.350       .  A
C1209      C1619   1.465       .  S
N1210      C1785   1.357       .  A
C1211      N1212   1.363       .  A
C1211      N1216   1.366       .  A
C1211      C1241   1.466       .  S
N1212      C1213   1.352       .  A
C1213      N1214   1.346       .  A
C1213      C1630   1.467       .  S
N1214      C1215   1.348       .  A
C1215      N1216   1.368       .  A
C1215      C1675   1.496       .  S
Zr1217     O1218   2.443       .  S
Zr1217     O1219   2.490   1_545  S
Zr1217     O1220   2.439       .  S
Zr1217     O1225   2.382       .  S
Zr1217     O1227   2.428       .  S
O1218      H1274   0.990       .  S
O1218      H1282   0.991       .  S
O1219      C1819   1.292       .  A
O1220      C1241   1.284       .  A
O1221     Zr1231   2.426       .  S
O1221      C1820   1.284       .  A
O1222     Zr1230   2.458       .  S
O1222      C1241   1.287       .  A
O1223      C1240   1.285       .  A
O1224     Zr1232   2.395       .  S
O1224      C1239   1.275       .  A
O1225     Zr1230   2.397       .  S
O1225     Zr1812   2.387   1_545  S
O1226     Zr1231   2.402       .  S
O1226      H1261   0.966       .  S
O1227     Zr1230   2.398       .  S
O1227     Zr1247   2.380       .  S
O1227      H1264   0.964       .  S
O1228     Zr1811   2.386   1_545  S
Zr1229     O1834   2.442   1_545  S
Zr1229     O1248   2.499       .  S
Zr1229     O1244   2.474       .  S
Zr1229     O1236   2.428   1_545  S
Zr1229     O1237   2.387       .  S
Zr1230     O1249   2.437       .  S
Zr1230     O1242   2.435       .  S
Zr1230     O1243   2.433       .  S
Zr1230     O1236   2.401   1_545  S
Zr1230     O1237   2.408       .  S
Zr1231     O1813   2.436       .  S
Zr1231     O1255   2.438       .  S
Zr1231     O1257   2.440       .  S
Zr1231     O1808   2.386       .  S
Zr1231     O1235   2.386       .  S
Zr1231     O1818   2.391       .  S
Zr1232     O1259   2.437       .  S
Zr1232     O1234   2.438       .  S
Zr1232     O1805   2.392       .  S
Zr1232     O1816   2.384       .  S
O1233     Zr1811   2.437   1_545  S
O1233      H1850   0.990   1_545  S
O1234      H1265   0.990       .  S
O1234      H1279   0.990       .  S
O1236     Zr1812   2.388       .  S
O1236      H1842   0.965       .  S
O1237     Zr1247   2.386       .  S
O1238     Zr1811   2.392   1_545  S
O1238      H1263   0.965       .  S
C1239      O1799   1.291       .  A
C1240      O1801   1.284       .  A
O1242      H1278   0.990       .  S
O1243      C1245   1.286       .  A
O1244      C1245   1.289       .  A
C1245      C1381   1.472       .  S
O1246     Zr1247   2.440       .  S
O1246      H1275   0.990       .  S
Zr1247     O1250   2.440       .  S
Zr1247     O1252   2.411       .  S
O1248      C1253   1.294       .  A
O1249      H1266   0.990       .  S
O1249      H1281   0.990       .  S
O1250      H1267   0.990       .  S
O1251      H1271   0.990       .  S
O1251      H1280   0.990       .  S
O1252      C1253   1.277       .  A
C1253      C1349   1.485       .  S
O1254     Zr1809   2.442       .  S
O1254      H1277   0.990       .  S
O1255      H1269   0.990       .  S
O1255      H1276   0.990       .  S
O1256      C1260   1.286       .  A
O1257      C1260   1.284       .  A
O1258      H1268   0.990       .  S
O1259      H1272   0.990       .  S
C1260      C1387   1.463       .  S
H1262      O1816   0.964       .  S
H1270      O1813   0.990       .  S
Zr1283     O1284   2.441       .  S
Zr1283     O1286   2.479       .  S
Zr1283     O1289   2.442       .  S
Zr1283     O1871   2.385   1_545  S
Zr1283     O1293   2.420       .  S
Zr1283     O1294   2.408       .  S
O1284      H1340   0.990       .  S
O1284      H1348   0.990       .  S
O1285      C1885   1.294       .  A
O1286      C1307   1.290       .  A
O1287     Zr1297   2.423       .  S
O1287      C1306   1.282   1_655  A
O1288     Zr1296   2.426       .  S
O1288      C1887   1.284       .  A
O1290     Zr1298   2.396       .  S
O1290      C1305   1.275       .  A
O1291     Zr1863   2.387       .  S
O1291     Zr1296   2.407       .  S
O1292     Zr1297   2.389       .  S
O1292     Zr1878   2.370   1_545  S
O1292      H1327   0.965       .  S
O1293     Zr1876   2.401   1_545  S
O1293     Zr1313   2.389   1_556  S
O1293      H1330   0.963       .  S
O1294     Zr1313   2.381   1_556  S
Zr1295     O1314   2.491       .  S
Zr1295     O1890   2.451   1_545  S
Zr1295     O1303   2.379       .  S
Zr1295     O1304   2.397       .  S
Zr1296     O1895   2.436   1_556  S
Zr1296     O1308   2.433       .  S
Zr1296     O1309   2.445   1_556  S
Zr1296     O1873   2.400       .  S
Zr1296     O1883   2.389   1_556  S
Zr1297     O1321   2.439       .  S
Zr1297     O1323   2.409   1_556  S
Zr1297     O1301   2.382   1_556  S
Zr1298     O1324   2.436       .  S
Zr1298     O1325   2.437   1_556  S
Zr1298     O1300   2.438       .  S
Zr1298     O1872   2.377       .  S
Zr1298     O1881   2.386   1_556  S
Zr1298     O1302   2.372   1_656  S
O1300      H1331   0.990       .  S
O1300      H1345   0.990       .  S
O1301     Zr1878   2.390   1_544  S
O1302      H1328   0.964   1_455  S
O1303     Zr1876   2.394   1_544  S
O1303     Zr1313   2.387       .  S
O1304     Zr1313   2.386       .  S
O1304      H1329   0.967       .  S
C1305      C1393   1.473       .  S
C1305      O1865   1.293       .  A
C1307      C1399   1.474       .  S
C1307      O1868   1.284       .  A
O1308      H1344   0.990       .  S
O1309      C1311   1.285       .  A
O1310     Zr1875   2.464       .  S
O1310      C1311   1.289       .  A
O1312     Zr1313   2.440   1_556  S
O1312      H1341   0.991       .  S
Zr1313     O1316   2.440   1_554  S
Zr1313     O1317   2.441       .  S
Zr1313     O1318   2.399       .  S
O1314      C1319   1.292       .  A
O1315     Zr1876   2.437   1_544  S
O1315      H1912   0.990       .  S
O1315      H1347   0.990       .  S
O1316      H1333   0.990   1_556  S
O1317      H1337   0.990       .  S
O1317      H1346   0.990   1_554  S
O1318      C1319   1.275       .  A
O1320      H1339   0.991       .  S
O1320      H1343   0.990   1_655  S
O1321      H1335   0.990       .  S
O1321      H1342   0.990       .  S
O1322      C1326   1.287       .  A
O1323      C1326   1.280       .  A
O1324      H1334   0.990       .  S
O1325      H1338   0.990       .  S
H1332      O1895   0.990       .  S
C1349      N1350   1.371       .  A
N1350      C1351   1.366       .  A
C1351      N1352   1.351       .  A
C1351      C1560   1.503       .  S
C1353      N1354   1.364       .  A
C1353      C1549   1.483       .  S
C1355      N1356   1.360       .  A
N1356      C1357   1.352       .  A
C1357      N1358   1.351       .  A
C1357      C1532   1.469       .  S
C1359      N1360   1.363       .  A
C1359      C1521   1.495       .  S
C1361      H1362   1.110       .  S
C1361      C1367   1.523       .  S
C1361      C1366   1.535       .  S
C1361      C1365   1.540       .  S
C1363      H1364   1.110       .  S
C1363      C1369   1.543       .  S
C1363      C1368   1.548       .  S
C1363      C1370   1.552       .  S
C1365      C1368   1.381       .  D
C1365      C1493   1.490       .  S
C1366      C1369   1.373       .  D
C1366      C1546   1.500       .  S
C1367      C1370   1.381       .  D
C1367      C1465   1.490       .  S
C1368      C1504   1.511       .  S
C1369      C1518   1.481       .  S
C1370      C1476   1.491       .  S
C1371      H1372   1.111       .  S
C1371      C1377   1.532       .  S
C1371      C1376   1.533       .  S
C1371      C1375   1.531       .  S
C1373      H1374   1.111       .  S
C1373      C1379   1.547       .  S
C1373      C1378   1.543       .  S
C1373      C1380   1.543       .  S
C1375      C1378   1.376       .  D
C1375      C1434   1.472       .  S
C1376      C1379   1.377       .  D
C1376      C1406   1.504       .  S
C1377      C1380   1.377       .  D
C1377      C1535   1.485       .  S
C1378      C1451   1.495       .  S
C1379      C1420   1.473       .  S
C1380      C1563   1.494       .  S
C1381      N1382   1.358       .  A
C1381      N1966   1.380   1_545  A
N1382      C1383   1.346       .  A
C1383      N1384   1.342       .  A
C1383      C1490   1.455       .  S
N1384      C1965   1.347   1_545  A
C1385      N1964   1.347       .  A
C1385      N1386   1.378       .  A
C1385      C1448   1.513       .  S
N1386      C1961   1.384       .  A
C1387      N1388   1.360       .  A
C1387      N1392   1.365       .  A
N1388      C1389   1.352       .  A
C1389      N1390   1.350       .  A
C1389      C1462   1.468       .  S
N1390      C1391   1.353       .  A
C1391      N1392   1.364       .  A
C1391      C1423   1.492       .  S
C1393      N1394   1.374       .  A
C1393      N1398   1.369       .  A
N1394      C1395   1.364       .  A
C1395      N1396   1.342       .  A
C1395      C1409   1.483       .  S
N1396      C1397   1.348       .  A
C1397      N1398   1.361       .  A
C1397      C1479   1.496       .  S
C1399      N1400   1.379       .  A
C1399      N1984   1.363   1_545  A
N1400      C1401   1.372       .  A
C1401      N1402   1.344       .  A
C1401      C1507   1.496       .  S
N1402      C1983   1.341   1_545  A
C1403      N1982   1.340       .  A
C1403      N1404   1.350       .  A
C1403      C1437   1.467       .  S
N1404      C1979   1.362       .  A
C1405      C1406   1.411       .  A
C1405      C1410   1.419       .  A
C1405      H1412   1.080       .  S
C1406      C1407   1.407       .  A
C1407      C1408   1.401       .  A
C1407      N1414   1.432       .  S
C1408      C1409   1.405       .  A
C1408      H1413   1.085       .  S
C1409      C1410   1.411       .  A
C1410      N1411   1.437       .  S
N1411      H1415   1.046       .  S
N1411      H1416   1.045       .  S
N1414      H1417   1.045       .  S
N1414      H1418   1.046       .  S
C1419      C1420   1.393       .  A
C1419      C1424   1.396       .  A
C1419      H1426   1.084       .  S
C1420      C1421   1.405       .  A
C1421      C1422   1.408       .  A
C1421      N1428   1.431       .  S
C1422      C1423   1.409       .  A
C1422      H1427   1.083       .  S
C1423      C1424   1.421       .  A
C1424      N1425   1.433       .  S
N1425      H1429   1.046       .  S
N1425      H1430   1.045       .  S
N1428      H1431   1.045       .  S
N1428      H1432   1.045       .  S
C1433      C1434   1.401       .  A
C1433      C1438   1.405       .  A
C1433      H1440   1.081       .  S
C1434      C1435   1.403       .  A
C1435      C1436   1.393       .  A
C1435      N1442   1.432       .  S
C1436      C1437   1.404       .  A
C1436      H2021   1.085       .  S
C1437      C1438   1.410       .  A
C1438      N1439   1.437       .  S
N1439      H1443   1.045       .  S
N1439      H1444   1.046       .  S
H1441      C2016   1.084       .  S
N1442      H1445   1.046       .  S
N1442      H1446   1.045       .  S
C1447      C1448   1.410       .  A
C1447      C1452   1.419       .  A
C1447      H1454   1.083       .  S
C1448      C1449   1.430       .  A
C1449      C1450   1.395       .  A
C1449      N2036   1.433       .  S
C1450      C1451   1.389       .  A
C1450      H1455   1.084       .  S
C1451      C1452   1.419       .  A
C1452      N1453   1.430       .  S
N1453      H1457   1.043       .  S
N1453      H1458   1.046       .  S
N1456      C2029   1.432   1_545  S
N1456      H1459   1.046       .  S
N1456      H1460   1.046   1_545  S
C1461      C1462   1.401       .  A
C1461      C1466   1.407       .  A
C1461      H1468   1.083       .  S
C1462      C1463   1.406       .  A
C1463      C1464   1.397       .  A
C1463      N1470   1.433       .  S
C1464      C1465   1.405       .  A
C1464      H1469   1.083       .  S
C1465      C1466   1.411       .  A
C1466      N1467   1.435       .  S
N1467      H1471   1.045       .  S
N1467      H1472   1.045       .  S
N1470      H1473   1.046       .  S
N1470      H1474   1.046       .  S
C1475      C1476   1.408       .  A
C1475      C1480   1.418       .  A
C1475      H1482   1.083       .  S
C1476      C1477   1.416       .  A
C1477      C1478   1.384       .  A
C1477      N1484   1.436       .  S
C1478      C1479   1.406       .  A
C1478      H1483   1.083       .  S
C1479      C1480   1.416       .  A
C1480      N1481   1.436       .  S
N1481      H1485   1.046       .  S
N1481      H1486   1.046       .  S
N1484      H1487   1.034       .  S
N1484      H1488   1.045       .  S
C1489      C1490   1.393       .  A
C1489      C1494   1.399       .  A
C1489      H1496   1.084       .  S
C1490      C1491   1.402       .  A
C1491      C1492   1.391       .  A
C1491      N1498   1.433       .  S
C1492      C1493   1.402       .  A
C1492      H1497   1.083       .  S
C1493      C1494   1.431       .  A
C1494      N1495   1.437       .  S
N1495      H1499   1.046       .  S
N1495      H1500   1.034       .  S
N1498      H1501   1.045       .  S
N1498      H1502   1.045       .  S
C1503      C1504   1.399       .  A
C1503      C1508   1.386       .  A
C1503      H1510   1.083       .  S
C1504      C1505   1.416       .  A
C1505      C1506   1.425       .  A
C1505      N1512   1.431       .  S
C1506      C1507   1.411       .  A
C1506      H1511   1.083       .  S
C1507      C1508   1.423       .  A
C1508      N1509   1.437       .  S
N1509      H1513   1.046       .  S
N1509      H1514   1.043       .  S
N1512      H1515   1.045       .  S
N1512      H1516   1.046       .  S
C1517      C1518   1.401       .  A
C1517      C1522   1.414       .  A
C1517      H1524   1.083       .  S
C1518      C1519   1.403       .  A
C1519      C1520   1.394       .  A
C1519      N1526   1.433       .  S
C1520      C1521   1.409       .  A
C1520      H1525   1.083       .  S
C1521      C1522   1.419       .  A
C1522      N1523   1.436       .  S
N1523      H1527   1.046       .  S
N1523      H1528   1.046       .  S
N1526      H1529   1.046       .  S
N1526      H1530   1.045       .  S
C1531      C1532   1.401       .  A
C1531      C1536   1.402       .  A
C1531      H1538   1.084       .  S
C1532      C1533   1.409       .  A
C1533      C1534   1.401       .  A
C1533      N1540   1.438       .  S
C1534      C1535   1.401       .  A
C1534      H1539   1.083       .  S
C1535      C1536   1.417       .  A
C1536      N1537   1.438       .  S
N1537      H1541   1.045       .  S
N1537      H1542   1.044       .  S
N1540      H1543   1.046       .  S
N1540      H1544   1.045       .  S
C1545      C1546   1.410       .  A
C1545      C1550   1.415       .  A
C1545      H1552   1.083       .  S
C1546      C1547   1.407       .  A
C1547      C1548   1.403       .  A
C1547      N1554   1.432       .  S
C1548      C1549   1.405       .  A
C1548      H1553   1.084       .  S
C1549      C1550   1.411       .  A
C1550      N1551   1.437       .  S
N1551      H1555   1.046       .  S
N1551      H1556   1.045       .  S
N1554      H1557   1.045       .  S
N1554      H1558   1.045       .  S
C1559      C1560   1.412       .  A
C1559      C1564   1.394       .  A
C1559      H1566   1.083       .  S
C1560      C1561   1.416       .  A
C1561      C1562   1.417       .  A
C1561      N1568   1.436       .  S
C1562      C1563   1.407       .  A
C1562      H1567   1.083       .  S
C1563      C1564   1.415       .  A
C1564      N1565   1.439       .  S
N1565      H1569   1.045       .  S
N1565      H1570   1.040       .  S
N1568      H1571   1.046       .  S
N1568      H1572   1.046       .  S
C1573      C1574   1.404       .  A
C1573      C1578   1.415       .  A
C1573      H1580   1.084       .  S
C1574      C1575   1.414       .  A
C1575      C1576   1.393       .  A
C1575      N1582   1.440       .  S
C1576      C1577   1.410       .  A
C1576      H1581   1.083       .  S
C1577      C1578   1.418       .  A
C1578      N1579   1.437       .  S
N1579      H1583   1.046       .  S
N1579      H1584   1.045       .  S
N1582      H1585   1.040       .  S
N1582      H1586   1.046       .  S
C1587      C1588   1.397       .  A
C1587      C1592   1.397       .  A
C1587      H1594   1.084       .  S
C1588      C1589   1.422       .  A
C1589      C1590   1.407       .  A
C1589      N1596   1.438       .  S
C1590      C1591   1.400       .  A
C1590      H1595   1.084       .  S
C1591      C1592   1.410       .  A
C1592      N1593   1.433       .  S
N1593      H1597   1.045       .  S
N1593      H1598   1.046       .  S
N1596      H1599   1.044       .  S
N1596      H1600   1.046       .  S
C1601      C1602   1.406       .  A
C1601      C1606   1.419       .  A
C1601      H1608   1.083       .  S
C1602      C1603   1.416       .  A
C1603      C1604   1.388       .  A
C1603      N1610   1.440       .  S
C1604      C1605   1.402       .  A
C1604      H1609   1.080       .  S
C1605      C1606   1.417       .  A
C1606      N1607   1.430       .  S
N1607      H1611   1.045       .  S
N1607      H1612   1.045       .  S
N1610      H1613   1.045       .  S
N1610      H1614   1.045       .  S
C1615      C1616   1.405       .  A
C1615      C1620   1.405       .  A
C1615      H1622   1.084       .  S
C1616      C1617   1.407       .  A
C1617      C1618   1.395       .  A
C1617      N1624   1.432       .  S
C1618      C1619   1.400       .  A
C1618      H1623   1.084       .  S
C1619      C1620   1.409       .  A
C1620      N1621   1.438       .  S
N1621      H1625   1.046       .  S
N1621      H1626   1.046       .  S
N1624      H1627   1.045       .  S
N1624      H1628   1.045       .  S
C1629      C1630   1.399       .  A
C1629      C1634   1.397       .  A
C1629      H1636   1.085       .  S
C1630      C1631   1.405       .  A
C1631      C1632   1.405       .  A
C1631      N1638   1.432       .  S
C1632      C1633   1.407       .  A
C1632      H1637   1.083       .  S
C1633      C1634   1.411       .  A
C1634      N1635   1.431       .  S
N1635      H1639   1.046       .  S
N1635      H1640   1.045       .  S
N1638      H1641   1.046       .  S
N1638      H1642   1.045       .  S
C1643      C1644   1.404       .  A
C1643      C1648   1.415       .  A
C1643      H1650   1.084       .  S
C1644      C1645   1.401       .  A
C1645      C1646   1.393       .  A
C1645      N1652   1.439       .  S
C1646      C1647   1.414       .  A
C1646      H1651   1.083       .  S
C1647      C1648   1.417       .  A
C1648      N1649   1.436       .  S
N1649      H1653   1.046       .  S
N1649      H1654   1.046       .  S
N1652      H1655   1.045       .  S
N1652      H1656   1.046       .  S
C1657      C1658   1.403       .  A
C1657      C1662   1.409       .  A
C1657      H1664   1.084       .  S
C1658      C1659   1.417       .  A
C1659      C1660   1.398       .  A
C1659      N1666   1.439       .  S
C1660      C1661   1.397       .  A
C1660      H1665   1.079       .  S
C1661      C1662   1.413       .  A
C1662      N1663   1.432       .  S
N1663      H1667   1.045       .  S
N1663      H1668   1.045       .  S
N1666      H1669   1.044       .  S
N1666      H1670   1.046       .  S
C1671      C1672   1.394       .  A
C1671      C1676   1.392       .  A
C1671      H1678   1.085       .  S
C1672      C1673   1.410       .  A
C1673      C1674   1.410       .  A
C1673      N1680   1.435       .  S
C1674      C1675   1.408       .  A
C1674      H1679   1.083       .  S
C1675      C1676   1.430       .  A
C1676      N1677   1.434       .  S
N1677      H1681   1.045       .  S
N1677      H1682   1.045       .  S
N1680      H1683   1.042       .  S
N1680      H1684   1.045       .  S
C1685      C1686   1.402       .  A
C1685      C1690   1.413       .  A
C1685      H1692   1.084       .  S
C1686      C1687   1.416       .  A
C1687      C1688   1.400       .  A
C1687      N1694   1.438       .  S
C1688      C1689   1.401       .  A
C1688      H1693   1.076       .  S
C1689      C1690   1.418       .  A
C1690      N1691   1.430       .  S
N1691      H1695   1.045       .  S
N1691      H1696   1.045       .  S
N1694      H1697   1.044       .  S
N1694      H1698   1.046       .  S
C1699      C1700   1.406       .  A
C1699      C1704   1.410       .  A
C1699      H1706   1.080       .  S
C1700      C1701   1.412       .  A
C1701      C1702   1.388       .  A
C1701      N1708   1.438       .  S
C1702      C1703   1.408       .  A
C1702      H1707   1.083       .  S
C1703      C1704   1.413       .  A
C1704      N1705   1.437       .  S
N1705      H1709   1.046       .  S
N1705      H1710   1.046       .  S
N1708      H1711   1.037       .  S
N1708      H1712   1.046       .  S
C1713      C1714   1.408       .  A
C1713      C1718   1.407       .  A
C1713      H1720   1.078       .  S
C1714      C1715   1.409       .  A
C1715      C1716   1.404       .  A
C1715      N1722   1.437       .  S
C1716      C1717   1.405       .  A
C1716      H1721   1.084       .  S
C1717      C1718   1.404       .  A
C1718      N1719   1.437       .  S
N1719      H1723   1.046       .  S
N1719      H1724   1.045       .  S
N1722      H1725   1.045       .  S
N1722      H1726   1.045       .  S
C1727      C1728   1.404       .  A
C1727      C1732   1.414       .  A
C1727      H1734   1.083       .  S
C1728      C1729   1.404       .  A
C1729      C1730   1.400       .  A
C1729      N1736   1.440       .  S
C1730      C1731   1.415       .  A
C1730      H1735   1.082       .  S
C1731      C1732   1.415       .  A
C1732      N1733   1.436       .  S
N1733      H1737   1.046       .  S
N1733      H1738   1.046       .  S
N1736      H1739   1.042       .  S
N1736      H1740   1.045       .  S
C1741      N1742   1.370       .  A
C1741      N1746   1.367       .  A
C1741      C1899   1.474       .  S
N1742      C1743   1.362       .  A
C1743      N1744   1.345       .  A
C1743      C2297   1.477       .  S
N1744      C1745   1.349       .  A
C1745      N1746   1.363       .  A
C1745      C2311   1.495       .  S
C1747      H1748   1.111       .  S
C1747      C1753   1.540       .  S
C1747      C1752   1.546       .  S
C1747      C1751   1.536       .  S
C1749      H1750   1.111       .  S
C1749      C1755   1.539       .  S
C1749      C1754   1.541       .  S
C1749      C1756   1.534       .  S
C1751      C1754   1.375       .  D
C1751      C2224   1.486       .  S
C1752      C1755   1.382       .  D
C1752      C2269   1.509       .  S
C1753      C1756   1.376       .  D
C1753      C2252   1.475       .  S
C1754      C2241   1.495       .  S
C1755      C2280   1.479       .  S
C1756      C2294   1.496       .  S
C1757      H1758   1.111       .  S
C1757      C1763   1.528       .  S
C1757      C1762   1.532       .  S
C1757      C1761   1.536       .  S
C1759      H1760   1.110       .  S
C1759      C1765   1.541       .  S
C1759      C1764   1.539       .  S
C1759      C1766   1.549       .  S
C1761      C1764   1.378       .  D
C1761      C2213   1.496       .  S
C1762      C1765   1.373       .  D
C1762      C2168   1.494       .  S
C1763      C1766   1.386       .  D
C1763      C2196   1.480       .  S
C1764      C2308   1.481       .  S
C1765      C2154   1.483       .  S
C1766      C2185   1.511       .  S
C1767      N1772   1.364       .  A
C1767      C1891   1.465       .  S
N1768      C1769   1.356   1_455  A
C1769      C2238   1.482       .  S
N1770      C1771   1.355       .  A
C1771      N1772   1.362       .  A
C1771      C2157   1.494       .  S
C1773      N1774   1.366       .  A
C1773      C1906   1.472       .  S
N1774      C1775   1.355       .  A
C1775      N1776   1.342       .  A
C1775      C2283   1.490       .  S
C1777      N1778   1.365       .  A
C1777      C2182   1.481       .  S
C1779      N1784   1.370       .  A
C1779      C1819   1.478       .  S
N1780      C1781   1.365       .  A
C1781      C2227   1.499       .  S
N1782      C1783   1.343       .  A
C1783      N1784   1.361       .  A
C1783      C2171   1.476       .  S
C1785      N1786   1.372       .  A
C1785      C1820   1.469       .  S
N1786      C1787   1.369       .  A
C1787      N1788   1.352       .  A
C1787      C2266   1.485       .  S
C1789      N1790   1.351       .  A
C1789      C2199   1.466       .  S
C1791      N1792   1.365       .  A
C1791      N1796   1.368       .  A
C1791      C1821   1.468       .  S
N1792      C1793   1.353       .  A
C1793      N1794   1.344       .  A
C1793      C2210   1.470       .  S
N1794      C1795   1.347       .  A
C1795      N1796   1.368       .  A
C1795      C2255   1.494       .  S
Zr1797     O1798   2.443       .  S
Zr1797     O1799   2.483       .  S
Zr1797     O1800   2.436       .  S
Zr1797     O1805   2.384       .  S
Zr1797     O1807   2.423       .  S
O1798      H1854   0.990       .  S
O1798      H1862   0.991       .  S
O1800      C1821   1.283       .  A
O1801     Zr1811   2.429   1_545  S
O1802     Zr1810   2.460       .  S
O1802      C1821   1.288       .  A
O1803      C1820   1.286       .  A
O1804     Zr1812   2.399       .  S
O1804      C1819   1.275       .  A
O1805     Zr1810   2.400       .  S
O1806     Zr1811   2.401       .  S
O1806      H1841   0.965       .  S
O1807     Zr1810   2.398       .  S
O1807     Zr1827   2.382       .  S
O1807      H1844   0.964       .  S
Zr1809     O1828   2.485       .  S
Zr1809     O1824   2.485       .  S
Zr1809     O1816   2.424       .  S
Zr1809     O1817   2.392       .  S
Zr1810     O1829   2.438       .  S
Zr1810     O1822   2.435       .  S
Zr1810     O1823   2.441       .  S
Zr1810     O1816   2.403       .  S
Zr1810     O1817   2.409       .  S
Zr1811     O1835   2.438       .  S
Zr1811     O1837   2.434       .  S
Zr1811     O1815   2.387       .  S
Zr1812     O1839   2.435       .  S
Zr1812     O1814   2.438       .  S
O1814      H1845   0.990       .  S
O1814      H1859   0.990       .  S
O1817     Zr1827   2.391       .  S
O1818      H1843   0.965       .  S
O1822      H1858   0.990       .  S
O1823      C1825   1.287       .  A
O1824      C1825   1.291       .  A
C1825      C1961   1.479       .  S
O1826     Zr1827   2.440       .  S
O1826      H1855   0.990       .  S
Zr1827     O1830   2.435       .  S
Zr1827     O1832   2.407       .  S
O1828      C1833   1.291       .  A
O1829      H1846   0.990       .  S
O1829      H1861   0.990       .  S
O1830      H1847   0.990       .  S
O1831      H1851   0.990       .  S
O1831      H1860   0.990       .  S
O1832      C1833   1.277       .  A
C1833      C1929   1.476       .  S
O1834      H1857   0.990   1_565  S
O1835      H1849   0.990       .  S
O1835      H1856   0.990       .  S
O1836      C1840   1.288       .  A
O1837      C1840   1.284       .  A
O1838      H1848   0.990       .  S
O1839      H1852   0.990       .  S
C1840      C1967   1.465       .  S
Zr1863     O1864   2.443       .  S
Zr1863     O1866   2.473       .  S
Zr1863     O1869   2.447       .  S
Zr1863     O1873   2.423       .  S
Zr1863     O1874   2.408       .  S
O1864      H1920   0.990       .  S
O1864      H1928   0.991       .  S
O1866      C1887   1.288       .  A
O1867     Zr1877   2.428       .  S
O1867      C1886   1.282   1_655  A
O1868     Zr1876   2.425   1_545  S
O1870     Zr1878   2.400       .  S
O1870      C1885   1.276       .  A
O1871     Zr1876   2.407       .  S
O1872     Zr1877   2.389       .  S
O1872      H1907   0.965       .  S
O1873     Zr1893   2.383   1_556  S
O1873      H1910   0.963       .  S
O1874     Zr1893   2.382   1_556  S
Zr1875     O1894   2.490       .  S
Zr1875     O1883   2.377       .  S
Zr1875     O1884   2.403       .  S
Zr1876     O1888   2.433       .  S
Zr1876     O1889   2.446   1_556  S
Zr1877     O1901   2.437       .  S
Zr1877     O1903   2.417   1_556  S
Zr1877     O1881   2.384   1_556  S
Zr1878     O1904   2.436       .  S
Zr1878     O1905   2.436   1_556  S
Zr1878     O1880   2.438       .  S
Zr1878     O1882   2.381   1_656  S
O1880      H1911   0.990       .  S
O1880      H1925   0.990       .  S
O1882      H1908   0.964   1_455  S
O1883     Zr1893   2.386       .  S
O1884     Zr1893   2.386       .  S
O1884      H1909   0.967       .  S
C1885      C1973   1.481       .  S
C1887      C1979   1.470       .  S
O1888      H1924   0.990       .  S
O1889      C1891   1.286       .  A
O1890      C1891   1.286       .  A
O1892     Zr1893   2.439   1_556  S
O1892      H1921   0.991       .  S
Zr1893     O1896   2.438       .  S
Zr1893     O1897   2.439       .  S
Zr1893     O1898   2.392       .  S
O1894      C1899   1.292       .  A
O1895      H1927   0.990   1_554  S
O1896      H1913   0.990       .  S
O1897      H1917   0.990       .  S
O1897      H1926   0.989   1_554  S
O1898      C1899   1.274       .  A
O1900      H1919   0.991   1_545  S
O1900      H1923   0.990   1_655  S
O1901      H1915   0.990       .  S
O1901      H1922   0.990       .  S
O1902      C1906   1.289       .  A
O1903      C1906   1.282       .  A
O1904      H1914   0.990   1_556  S
O1905      H1918   0.990       .  S
C1929      N1930   1.369       .  A
N1930      C1931   1.364       .  A
C1931      N1932   1.352       .  A
C1931      C2140   1.502       .  S
C1933      N1934   1.364       .  A
C1933      C2129   1.481       .  S
C1935      N1936   1.360       .  A
N1936      C1937   1.354       .  A
C1937      N1938   1.351       .  A
C1937      C2112   1.469       .  S
C1939      N1940   1.361       .  A
C1939      C2101   1.493       .  S
C1941      H1942   1.109       .  S
C1941      C1947   1.525       .  S
C1941      C1946   1.536       .  S
C1941      C1945   1.536       .  S
C1943      H1944   1.110       .  S
C1943      C1949   1.539       .  S
C1943      C1948   1.549       .  S
C1943      C1950   1.553       .  S
C1945      C1948   1.382       .  D
C1945      C2073   1.495       .  S
C1946      C1949   1.376       .  D
C1946      C2126   1.500       .  S
C1947      C1950   1.380       .  D
C1947      C2045   1.490       .  S
C1948      C2084   1.507       .  S
C1949      C2098   1.480       .  S
C1950      C2056   1.492       .  S
C1951      H1952   1.111       .  S
C1951      C1957   1.530       .  S
C1951      C1956   1.530       .  S
C1951      C1955   1.529       .  S
C1953      H1954   1.111       .  S
C1953      C1959   1.551       .  S
C1953      C1958   1.544       .  S
C1953      C1960   1.542       .  S
C1955      C1958   1.376       .  D
C1955      C2014   1.475       .  S
C1956      C1959   1.378       .  D
C1956      C1986   1.504       .  S
C1957      C1960   1.377       .  D
C1957      C2115   1.482       .  S
C1958      C2031   1.492       .  S
C1959      C2000   1.476       .  S
C1960      C2143   1.495       .  S
C1961      N1962   1.359       .  A
N1962      C1963   1.347       .  A
C1963      N1964   1.340       .  A
C1963      C2070   1.457       .  S
C1965      N1966   1.376       .  A
C1965      C2028   1.507       .  S
C1967      N1968   1.363       .  A
C1967      N1972   1.366       .  A
N1968      C1969   1.355       .  A
C1969      N1970   1.349       .  A
C1969      C2042   1.472       .  S
N1970      C1971   1.352       .  A
C1971      N1972   1.363       .  A
C1971      C2003   1.492       .  S
C1973      N1974   1.377       .  A
C1973      N1978   1.371       .  A
N1974      C1975   1.367       .  A
C1975      N1976   1.341       .  A
C1975      C1989   1.487       .  S
N1976      C1977   1.347       .  A
C1977      N1978   1.362       .  A
C1977      C2059   1.497       .  S
C1979      N1980   1.379       .  A
N1980      C1981   1.371       .  A
C1981      N1982   1.342       .  A
C1981      C2087   1.491       .  S
C1983      N1984   1.352       .  A
C1983      C2017   1.473       .  S
C1985      C1986   1.409       .  A
C1985      C1990   1.418       .  A
C1985      H1992   1.079       .  S
C1986      C1987   1.408       .  A
C1987      C1988   1.403       .  A
C1987      N1994   1.432       .  S
C1988      C1989   1.407       .  A
C1988      H1993   1.085       .  S
C1989      C1990   1.411       .  A
C1990      N1991   1.437       .  S
N1991      H1995   1.046       .  S
N1991      H1996   1.045       .  S
N1994      H1997   1.045       .  S
N1994      H1998   1.046       .  S
C1999      C2000   1.393       .  A
C1999      C2004   1.396       .  A
C1999      H2006   1.084       .  S
C2000      C2001   1.406       .  A
C2001      C2002   1.408       .  A
C2001      N2008   1.431       .  S
C2002      C2003   1.409       .  A
C2002      H2007   1.083       .  S
C2003      C2004   1.421       .  A
C2004      N2005   1.433       .  S
N2005      H2009   1.046       .  S
N2005      H2010   1.046       .  S
N2008      H2011   1.045       .  S
N2008      H2012   1.045       .  S
C2013      C2014   1.401       .  A
C2013      C2018   1.403       .  A
C2013      H2020   1.081       .  S
C2014      C2015   1.405       .  A
C2015      C2016   1.395       .  A
C2015      N2022   1.432       .  S
C2016      C2017   1.405       .  A
C2017      C2018   1.409       .  A
C2018      N2019   1.431       .  S
N2019      H2023   1.046       .  S
N2019      H2024   1.046       .  S
N2022      H2025   1.046       .  S
N2022      H2026   1.046       .  S
C2027      C2028   1.408       .  A
C2027      C2032   1.415       .  A
C2027      H2034   1.083       .  S
C2028      C2029   1.428       .  A
C2029      C2030   1.395       .  A
C2030      C2031   1.389       .  A
C2030      H2035   1.084       .  S
C2031      C2032   1.418       .  A
C2032      N2033   1.430       .  S
N2033      H2037   1.042       .  S
N2033      H2038   1.045       .  S
N2036      H2039   1.046       .  S
N2036      H2040   1.046       .  S
C2041      C2042   1.403       .  A
C2041      C2046   1.410       .  A
C2041      H2048   1.083       .  S
C2042      C2043   1.407       .  A
C2043      C2044   1.396       .  A
C2043      N2050   1.433       .  S
C2044      C2045   1.402       .  A
C2044      H2049   1.083       .  S
C2045      C2046   1.412       .  A
C2046      N2047   1.436       .  S
N2047      H2051   1.045       .  S
N2047      H2052   1.045       .  S
N2050      H2053   1.046       .  S
N2050      H2054   1.046       .  S
C2055      C2056   1.409       .  A
C2055      C2060   1.419       .  A
C2055      H2062   1.083       .  S
C2056      C2057   1.415       .  A
C2057      C2058   1.384       .  A
C2057      N2064   1.436       .  S
C2058      C2059   1.407       .  A
C2058      H2063   1.083       .  S
C2059      C2060   1.416       .  A
C2060      N2061   1.436       .  S
N2061      H2065   1.046       .  S
N2061      H2066   1.045       .  S
N2064      H2067   1.034       .  S
N2064      H2068   1.045       .  S
C2069      C2070   1.392       .  A
C2069      C2074   1.398       .  A
C2069      H2076   1.084       .  S
C2070      C2071   1.403       .  A
C2071      C2072   1.394       .  A
C2071      N2078   1.433       .  S
C2072      C2073   1.404       .  A
C2072      H2077   1.083       .  S
C2073      C2074   1.431       .  A
C2074      N2075   1.437       .  S
N2075      H2079   1.046       .  S
N2075      H2080   1.033       .  S
N2078      H2081   1.045       .  S
N2078      H2082   1.045       .  S
C2083      C2084   1.400       .  A
C2083      C2088   1.385       .  A
C2083      H2090   1.083       .  S
C2084      C2085   1.415       .  A
C2085      C2086   1.422       .  A
C2085      N2092   1.430       .  S
C2086      C2087   1.410       .  A
C2086      H2091   1.083       .  S
C2087      C2088   1.422       .  A
C2088      N2089   1.437       .  S
N2089      H2093   1.046       .  S
N2089      H2094   1.043       .  S
N2092      H2095   1.045       .  S
N2092      H2096   1.045       .  S
C2097      C2098   1.401       .  A
C2097      C2102   1.414       .  A
C2097      H2104   1.084       .  S
C2098      C2099   1.402       .  A
C2099      C2100   1.392       .  A
C2099      N2106   1.433       .  S
C2100      C2101   1.409       .  A
C2100      H2105   1.083       .  S
C2101      C2102   1.420       .  A
C2102      N2103   1.437       .  S
N2103      H2107   1.046       .  S
N2103      H2108   1.045       .  S
N2106      H2109   1.046       .  S
N2106      H2110   1.045       .  S
C2111      C2112   1.402       .  A
C2111      C2116   1.403       .  A
C2111      H2118   1.084       .  S
C2112      C2113   1.409       .  A
C2113      C2114   1.399       .  A
C2113      N2120   1.438       .  S
C2114      C2115   1.400       .  A
C2114      H2119   1.084       .  S
C2115      C2116   1.416       .  A
C2116      N2117   1.438       .  S
N2117      H2121   1.045       .  S
N2117      H2122   1.044       .  S
N2120      H2123   1.046       .  S
N2120      H2124   1.045       .  S
C2125      C2126   1.410       .  A
C2125      C2130   1.414       .  A
C2125      H2132   1.083       .  S
C2126      C2127   1.408       .  A
C2127      C2128   1.403       .  A
C2127      N2134   1.432       .  S
C2128      C2129   1.404       .  A
C2128      H2133   1.084       .  S
C2129      C2130   1.410       .  A
C2130      N2131   1.437       .  S
N2131      H2135   1.046       .  S
N2131      H2136   1.045       .  S
N2134      H2137   1.046       .  S
N2134      H2138   1.045       .  S
C2139      C2140   1.410       .  A
C2139      C2144   1.394       .  A
C2139      H2146   1.083       .  S
C2140      C2141   1.417       .  A
C2141      C2142   1.417       .  A
C2141      N2148   1.436       .  S
C2142      C2143   1.406       .  A
C2142      H2147   1.083       .  S
C2143      C2144   1.415       .  A
C2144      N2145   1.438       .  S
N2145      H2149   1.045       .  S
N2145      H2150   1.041       .  S
N2148      H2151   1.045       .  S
N2148      H2152   1.046       .  S
C2153      C2154   1.404       .  A
C2153      C2158   1.414       .  A
C2153      H2160   1.084       .  S
C2154      C2155   1.414       .  A
C2155      C2156   1.388       .  A
C2155      N2162   1.439       .  S
C2156      C2157   1.408       .  A
C2156      H2161   1.083       .  S
C2157      C2158   1.418       .  A
C2158      N2159   1.437       .  S
N2159      H2163   1.046       .  S
N2159      H2164   1.045       .  S
N2162      H2165   1.039       .  S
N2162      H2166   1.045       .  S
C2167      C2168   1.398       .  A
C2167      C2172   1.400       .  A
C2167      H2174   1.084       .  S
C2168      C2169   1.424       .  A
C2169      C2170   1.409       .  A
C2169      N2176   1.438       .  S
C2170      C2171   1.400       .  A
C2170      H2175   1.084       .  S
C2171      C2172   1.411       .  A
C2172      N2173   1.433       .  S
N2173      H2177   1.045       .  S
N2173      H2178   1.046       .  S
N2176      H2179   1.043       .  S
N2176      H2180   1.046       .  S
C2181      C2182   1.406       .  A
C2181      C2186   1.420       .  A
C2181      H2188   1.083       .  S
C2182      C2183   1.414       .  A
C2183      C2184   1.387       .  A
C2183      N2190   1.440       .  S
C2184      C2185   1.402       .  A
C2184      H2189   1.079       .  S
C2185      C2186   1.418       .  A
C2186      N2187   1.430       .  S
N2187      H2191   1.046       .  S
N2187      H2192   1.045       .  S
N2190      H2193   1.045   1_565  S
N2190      H2194   1.045   1_565  S
C2195      C2196   1.405       .  A
C2195      C2200   1.405       .  A
C2195      H2202   1.084       .  S
C2196      C2197   1.406       .  A
C2197      C2198   1.395       .  A
C2197      N2204   1.431       .  S
C2198      C2199   1.400       .  A
C2198      H2203   1.084       .  S
C2199      C2200   1.410       .  A
C2200      N2201   1.437       .  S
N2201      H2205   1.046       .  S
N2201      H2206   1.046       .  S
N2204      H2207   1.045       .  S
N2204      H2208   1.045       .  S
C2209      C2210   1.400       .  A
C2209      C2214   1.397       .  A
C2209      H2216   1.085       .  S
C2210      C2211   1.404       .  A
C2211      C2212   1.407       .  A
C2211      N2218   1.432       .  S
C2212      C2213   1.409       .  A
C2212      H2217   1.082       .  S
C2213      C2214   1.411       .  A
C2214      N2215   1.430       .  S
N2215      H2219   1.046       .  S
N2215      H2220   1.045       .  S
N2218      H2221   1.046       .  S
N2218      H2222   1.045       .  S
C2223      C2224   1.404       .  A
C2223      C2228   1.416       .  A
C2223      H2230   1.083       .  S
C2224      C2225   1.403       .  A
C2225      C2226   1.395       .  A
C2225      N2232   1.439       .  S
C2226      C2227   1.413       .  A
C2226      H2231   1.083   1_655  S
C2227      C2228   1.418       .  A
C2228      N2229   1.436       .  S
N2229      H2233   1.046       .  S
N2229      H2234   1.045       .  S
N2232      H2235   1.045       .  S
N2232      H2236   1.045       .  S
C2237      C2238   1.404       .  A
C2237      C2242   1.410       .  A
C2237      H2244   1.084       .  S
C2238      C2239   1.419       .  A
C2239      C2240   1.399       .  A
C2239      N2246   1.439       .  S
C2240      C2241   1.397       .  A
C2240      H2245   1.079       .  S
C2241      C2242   1.414       .  A
C2242      N2243   1.432       .  S
N2243      H2247   1.045       .  S
N2243      H2248   1.045       .  S
N2246      H2249   1.043       .  S
N2246      H2250   1.045       .  S
C2251      C2252   1.391       .  A
C2251      C2256   1.390       .  A
C2251      H2258   1.085       .  S
C2252      C2253   1.406       .  A
C2253      C2254   1.407       .  A
C2253      N2260   1.431       .  S
C2254      C2255   1.408       .  A
C2254      H2259   1.083       .  S
C2255      C2256   1.432       .  A
C2256      N2257   1.434       .  S
N2257      H2261   1.045       .  S
N2257      H2262   1.045       .  S
N2260      H2263   1.045       .  S
N2260      H2264   1.046       .  S
C2265      C2266   1.402       .  A
C2265      C2270   1.413       .  A
C2265      H2272   1.084       .  S
C2266      C2267   1.416       .  A
C2267      C2268   1.401       .  A
C2267      N2274   1.434       .  S
C2268      C2269   1.403       .  A
C2268      H2273   1.079       .  S
C2269      C2270   1.417       .  A
C2270      N2271   1.430       .  S
N2271      H2275   1.045       .  S
N2271      H2276   1.046       .  S
N2274      H2277   1.046       .  S
N2274      H2278   1.044       .  S
C2279      C2280   1.405       .  A
C2279      C2284   1.410       .  A
C2279      H2286   1.080       .  S
C2280      C2281   1.412       .  A
C2281      C2282   1.389       .  A
C2281      N2288   1.439       .  S
C2282      C2283   1.410       .  A
C2282      H2287   1.083       .  S
C2283      C2284   1.412       .  A
C2284      N2285   1.437       .  S
N2285      H2289   1.046       .  S
N2285      H2290   1.045       .  S
N2288      H2291   1.038       .  S
N2288      H2292   1.046       .  S
C2293      C2294   1.408       .  A
C2293      C2298   1.411       .  A
C2293      H2300   1.079       .  S
C2294      C2295   1.409       .  A
C2295      C2296   1.405       .  A
C2295      N2302   1.437       .  S
C2296      C2297   1.406       .  A
C2296      H2301   1.084       .  S
C2297      C2298   1.406       .  A
C2298      N2299   1.436       .  S
N2299      H2303   1.046       .  S
N2299      H2304   1.045       .  S
N2302      H2305   1.045       .  S
N2302      H2306   1.046       .  S
C2307      C2308   1.405       .  A
C2307      C2312   1.413       .  A
C2307      H2314   1.083       .  S
C2308      C2309   1.403       .  A
C2309      C2310   1.396       .  A
C2309      N2316   1.440       .  S
C2310      C2311   1.413       .  A
C2310      H2315   1.082       .  S
C2311      C2312   1.416       .  A
C2312      N2313   1.437       .  S
N2313      H2317   1.046       .  S
N2313      H2318   1.046       .  S
N2316      H2319   1.042       .  S
N2316      H2320   1.045       .  S
