geometry optimzed in LAMMPS
_audit_creation_date              2020-11-30 
_audit_creation_method            'lammps2cif' 
_symmetry_space_group_name_H-M    'P1' 
_symmetry_Int_Tables_number       1 
_symmetry_cell_setting            triclinic 
loop_ 
_symmetry_equiv_pos_as_xyz 
  x,y,z 
_cell_length_a                    36.36660953 
_cell_length_b                    37.115868081720464 
_cell_length_c                    30.67827403359314 
_cell_angle_alpha                 88.65135850707365 
_cell_angle_beta                  88.96578270929184 
_cell_angle_gamma                 96.40636311924811 
loop_ 
_atom_site_label 
_atom_site_type_symbol 
_atom_site_fract_x 
_atom_site_fract_y 
_atom_site_fract_z 
_atom_site_charge 
C1          C  0.11765937  0.98974300  0.20350911     0.02700
C2          C  0.09601411  0.98909953  0.24144966    -0.13500
C3          C  0.10856986  0.97591888  0.28097483     0.00200
C4          C  0.14452930  0.46579836  0.28251432    -0.12000
C5          C  0.16831241  0.46917866  0.24497603     0.02700
C6          C  0.15377720  0.48133343  0.20546015    -0.11400
H7          H  0.06854949  0.99763933  0.23956546     0.08200
H8          H  0.15339909  0.45469121  0.31294607     0.05800
H9          H  0.16986982  0.48430158  0.17549267     0.05600
C10         C  0.26568060  0.45096641  0.20801854     0.02700
C11         C  0.28350036  0.44911682  0.24800931    -0.13500
C12         C  0.26383067  0.45185276  0.28749733     0.00200
C13         C  0.22656371  0.45866179  0.28633643    -0.12000
C14         C  0.20780166  0.46026084  0.24647772     0.02700
C15         C  0.22785564  0.45480880  0.20764642    -0.11400
H16         H  0.31283007  0.44625265  0.24835238     0.08200
H17         H  0.21278150  0.46309198  0.31692472     0.05800
H18         H  0.21487838  0.45389931  0.17631196     0.05600
C19         C  0.45886167  0.15157709  0.21992084     0.02700
C20         C  0.46050379  0.13641915  0.26201856    -0.13500
C21         C  0.46445922  0.15827025  0.29840319     0.00200
C22         C  0.46925636  0.19604243  0.29287740    -0.12000
C23         C  0.46708103  0.21269985  0.25112399     0.02700
C24         C  0.46112979  0.18963388  0.21485159    -0.11400
H25         H  0.45788715  0.10718779  0.26680980     0.08200
H26         H  0.47424809  0.21188537  0.32165851     0.05800
H27         H  0.45708059  0.20053208  0.18267027     0.05600
C28         C  0.48089121  0.30896769  0.20028408     0.02700
C29         C  0.47729536  0.27108591  0.20444962    -0.13500
C30         C  0.47084078  0.25365589  0.24596884     0.00200
C31         C  0.46591916  0.27608401  0.28224099    -0.12000
C32         C  0.47176340  0.31420704  0.27791082     0.02700
C33         C  0.48229240  0.32987496  0.23731037    -0.11400
H34         H  0.47792432  0.25604640  0.17489092     0.08200
H35         H  0.45576489  0.26448869  0.31333794     0.05800
H36         H  0.48563827  0.35920714  0.23328983     0.05600
O37         O  0.43682037  0.00777057  0.10740967    -0.80600
O38         O  0.37076477  0.48614088  0.44613600    -0.80600
O39         O  0.48277651  0.05168134  0.46443130    -0.80600
O40         O  0.37550358  0.42655114  0.04079447    -0.80600
O41         O  0.42408425  0.04368739  0.45436298    -0.80700
O42         O  0.38206198  0.48532870  0.05078290    -0.80600
O43         O  0.37070344  0.42719191  0.45132058    -0.80600
O44         O  0.45434497  0.04299396  0.05001096    -0.80600
C45         C  0.44469078  0.03929247  0.09115522     1.09100
C46         C  0.35532748  0.45483429  0.43890708     1.09000
C47         C  0.45437820  0.06340920  0.44899849     1.09100
C48         C  0.36366070  0.45452716  0.05716110     1.09000
O49         O  0.43233998  0.43780605  0.08475479    -0.80600
O50         O  0.47654552  0.50226189  0.40893561    -0.80700
O51         O  0.02469465  0.03093417  0.03087770    -0.80600
O52         O  0.44712757  0.41271352  0.44467346    -0.80600
O53         O  0.42285324  0.44763398  0.39732615    -0.80700
O54         O  0.49275181  0.48304036  0.06368363    -0.80600
O55         O  0.45303037  0.40929195  0.03038070    -0.80600
O56         O  0.00910453  0.98334248  0.46388827    -0.80600
Co57       Co  0.43625430  0.48594817  0.05280392     1.51500
Co58       Co  0.42353897  0.49469831  0.43047414     1.51700
Co59       Co  0.48034596  0.00926670  0.50628224     1.51600
Co60       Co  0.41338689  0.42190935  0.49203125     1.51500
O61         O  0.43559687  0.47476248  0.48979965    -1.42500
C62         C  0.44815495  0.41164575  0.07058617     1.09000
C63         C  0.00501893  0.48895813  0.42331042     1.09100
C64         C  0.02225221  0.50605200  0.06023500     1.09000
C65         C  0.43900961  0.41963615  0.40600799     1.09000
C66         C  0.43872115  0.36590108  0.30145953    -0.09600
C67         C  0.46150580  0.33889398  0.31258961     0.06600
C68         C  0.47633569  0.33866433  0.35454834    -0.03400
C69         C  0.46892629  0.36545369  0.38379949    -0.07800
C70         C  0.44676691  0.39304469  0.37236137     0.05700
C71         C  0.43162634  0.39295902  0.33032002    -0.02900
Br72       Br  0.40153114  0.42868784  0.30903676    -0.02600
H73         H  0.42688111  0.36651925  0.26936185     0.09600
H74         H  0.48106947  0.36475792  0.41575488     0.07600
Br75       Br  0.50841027  0.30383136  0.37306244    -0.03000
C76         C  0.49792765  0.34004115  0.12841158    -0.09600
C77         C  0.47097148  0.32752904  0.16008246     0.06600
C78         C  0.43590137  0.34020671  0.15893107    -0.03400
C79         C  0.42993735  0.36855924  0.13064058    -0.07800
C80         C  0.45704759  0.38225287  0.09998804     0.05700
C81         C  0.49047995  0.36619713  0.09695324    -0.02900
Br82       Br  0.52708146  0.37961064  0.05186873    -0.02600
H83         H  0.52490245  0.33028699  0.12891389     0.09600
H84         H  0.40376941  0.37974907  0.13235542     0.07600
Br85       Br  0.39565348  0.32065721  0.19697150    -0.03000
C86         C  0.49328980  0.13616201  0.36553954    -0.09600
C87         C  0.46132076  0.14077442  0.34227609     0.06600
C88         C  0.42681999  0.12480982  0.35869169    -0.03400
C89         C  0.42495867  0.10236882  0.39602776    -0.07800
C90         C  0.45723460  0.09485588  0.41752942     0.05700
C91         C  0.49164026  0.11355710  0.40299667    -0.02900
Br92       Br  0.03786513  0.10839109  0.43058382    -0.02600
H93         H  0.01990274  0.14873838  0.35324773     0.09600
H94         H  0.39815931  0.08902245  0.40660124     0.07600
Br95       Br  0.38161121  0.13117354  0.32958911    -0.03000
C96         C  0.42455604  0.09704017  0.18784056    -0.09600
C97         C  0.45207987  0.12659840  0.18254407     0.06600
C98         C  0.47434747  0.12909198  0.14404767    -0.03400
C99         C  0.46939995  0.10184384  0.11282755    -0.07800
C100        C  0.44355230  0.07103189  0.11984588     0.05700
C101        C  0.42061906  0.06921908  0.15781229    -0.02900
Br102      Br  0.38408745  0.02905535  0.17238616    -0.02600
H103        H  0.40680975  0.09473799  0.21676477     0.09600
H104        H  0.98775018  0.10350030  0.08445652     0.07600
Br105      Br  0.01491975  0.16631122  0.13465363    -0.03000
C106        C  0.28241744  0.47842732  0.35909187    -0.09600
C107        C  0.28278189  0.44977559  0.32999593     0.06600
C108        C  0.30191795  0.42006261  0.34165385    -0.03400
C109        C  0.32217592  0.42060527  0.38006764    -0.07800
C110        C  0.32472099  0.45079344  0.40718451     0.05700
C111        C  0.30317677  0.47927150  0.39722809    -0.02900
Br112      Br  0.30182808  0.02064967  0.43361646    -0.02600
H113        H  0.26715899  0.50109606  0.35118905     0.09600
H114        H  0.33820342  0.39829227  0.38693794     0.07600
Br115      Br  0.30217553  0.37826422  0.30594891    -0.03000
C116        C  0.29873611  0.41856925  0.15145438    -0.09600
C117        C  0.28687175  0.45086869  0.16618094     0.06600
C118        C  0.29510897  0.48280062  0.14051798    -0.03400
C119        C  0.31792550  0.48278430  0.10322027    -0.07800
C120        C  0.33227217  0.45101464  0.08981744     0.05700
C121        C  0.32030689  0.41809731  0.11305340    -0.02900
Br122      Br  0.33182496  0.37138410  0.09501274    -0.02600
H123        H  0.29114763  0.39355251  0.16997245     0.09600
H124        H  0.32594304  0.00840303  0.08550355     0.07600
Br125      Br  0.27787270  0.02793006  0.15633740    -0.03000
C126        C  0.02092516  0.46514492  0.35196889    -0.09600
C127        C  0.03341716  0.48089231  0.39084315     0.06600
C128        C  0.07186139  0.99157215  0.39516699    -0.03400
C129        C  0.09634737  0.98805110  0.35986615    -0.07800
C130        C  0.08314741  0.47352244  0.32017900     0.05700
C131        C  0.04520909  0.46044644  0.31745289    -0.02900
Br132      Br  0.02416959  0.43511560  0.26818629    -0.02600
H133        H  0.99183611  0.45694011  0.34797808     0.09600
H134        H  0.12518194  0.99837066  0.36270398     0.07600
Br135      Br  0.09148086  0.01441829  0.44652687    -0.03000
C136        C  0.05583953  0.46800768  0.10897995    -0.09600
C137        C  0.05272037  0.50250495  0.09073621     0.06600
C138        C  0.07591790  0.03267142  0.10617312    -0.03400
C139        C  0.09875500  0.02803510  0.14179601    -0.07800
C140        C  0.09960149  0.49373331  0.16130782     0.04700
C141        C  0.07942433  0.46335170  0.14335769    -0.02900
Br142      Br  0.08148002  0.41506244  0.16639737    -0.02600
H143        H  0.03871757  0.44470662  0.09769992     0.09600
H144        H  0.11445649  0.05144954  0.15547972     0.07600
Br145      Br  0.07479875  0.08116993  0.08348444    -0.03000
C146        C  0.11765971  0.98974544  0.70350899     0.02700
C147        C  0.09601416  0.98910163  0.74144937    -0.13500
C148        C  0.10856957  0.97592041  0.78097446     0.00200
C149        C  0.14452899  0.46579882  0.78251337    -0.12000
C150        C  0.16831236  0.46917970  0.74497534     0.02700
C151        C  0.15377738  0.48133490  0.70545951    -0.11400
H152        H  0.06854971  0.99764155  0.73956502     0.08200
H153        H  0.15339855  0.45469118  0.81294484     0.05800
H154        H  0.16987016  0.48430331  0.67549218     0.05600
C155        C  0.26568074  0.45096735  0.70801867     0.02700
C156        C  0.28350007  0.44911707  0.74800963    -0.13500
C157        C  0.26383009  0.45185274  0.78749750     0.00200
C158        C  0.22656324  0.45866214  0.78633627    -0.12000
C159        C  0.20780158  0.46026182  0.74647732     0.02700
C160        C  0.22785588  0.45481019  0.70764616    -0.11400
H161        H  0.31282971  0.44625261  0.74835297     0.08200
H162        H  0.21278083  0.46309212  0.81692446     0.05800
H163        H  0.21487892  0.45390126  0.67631146     0.05600
C164        C  0.45885994  0.15157711  0.71992094     0.02700
C165        C  0.46050240  0.13641919  0.76201865    -0.13500
C166        C  0.46445851  0.15827030  0.79840325     0.00200
C167        C  0.46925591  0.19604251  0.79287735    -0.12000
C168        C  0.46708019  0.21269987  0.75112393     0.02700
C169        C  0.46112818  0.18963392  0.71485166    -0.11400
H170        H  0.45788574  0.10718782  0.76680994     0.08200
H171        H  0.47424820  0.21188544  0.82165821     0.05800
H172        H  0.45707857  0.20053204  0.68267077     0.05600
C173        C  0.48089130  0.30896758  0.70028355     0.02700
C174        C  0.47729508  0.27108574  0.70444918    -0.13500
C175        C  0.47084041  0.25365590  0.74596856     0.00200
C176        C  0.46591915  0.27608416  0.78224061    -0.12000
C177        C  0.47176366  0.31420715  0.77791030     0.02700
C178        C  0.48229261  0.32987494  0.73730976    -0.11400
H179        H  0.47792390  0.25604635  0.67489096     0.08200
H180        H  0.45576489  0.26448891  0.81333775     0.05800
H181        H  0.48563867  0.35920714  0.73328916     0.05600
O182        O  0.43682045  0.00777079  0.60740965    -0.80600
O183        O  0.37076454  0.48614045  0.94613550    -0.80600
O184        O  0.48277755  0.05168109  0.96443159    -0.80600
O185        O  0.37550417  0.42655170  0.54079495    -0.80600
O186        O  0.42408525  0.04368748  0.95436339    -0.80700
O187        O  0.38206284  0.48532924  0.55078339    -0.80600
O188        O  0.37070330  0.42719143  0.95132019    -0.80600
O189        O  0.45434387  0.04299432  0.55001074    -0.80600
C190        C  0.44468999  0.03929274  0.59115509     1.09100
C191        C  0.35532725  0.45483379  0.93890676     1.09000
C192        C  0.45437929  0.06340913  0.94899877     1.09100
C193        C  0.36366148  0.45452776  0.55716169     1.09000
O194        O  0.43234095  0.43780651  0.58475472    -0.80600
O195        O  0.47654545  0.50226128  0.90893595    -0.80700
O196        O  0.02469493  0.03093513  0.53087716    -0.80600
O197        O  0.44712748  0.41271302  0.94467346    -0.80600
O198        O  0.42285323  0.44763355  0.89732615    -0.80700
O199        O  0.49275276  0.48304089  0.56368296    -0.80600
O200        O  0.45303098  0.40929239  0.53038048    -0.80600
O201        O  0.00910426  0.98334159  0.96388862    -0.80600
Co202      Co  0.43625517  0.48594859  0.55280389     1.51500
Co203      Co  0.42353887  0.49469784  0.93047408     1.51700
Co204      Co  0.48034670  0.00926615  0.00628236     1.51600
Co205      Co  0.41338656  0.42190885  0.99203108     1.51500
O206        O  0.43559646  0.47476199  0.98979970    -1.42500
C207        C  0.44815582  0.41164621  0.57058598     1.09000
C208        C  0.00501955  0.48895784  0.92331055     1.09100
C209        C  0.02225182  0.50605270  0.56023459     1.09000
C210        C  0.43900971  0.41963579  0.90600795     1.09000
C211        C  0.43872161  0.36590125  0.80145912    -0.09600
C212        C  0.46150633  0.33889419  0.81258908     0.06600
C213        C  0.47633633  0.33866448  0.85454775    -0.03400
C214        C  0.46892687  0.36545369  0.88379909    -0.07800
C215        C  0.44676729  0.39304459  0.87236115     0.05700
C216        C  0.43162671  0.39295903  0.83031980    -0.02900
Br217      Br  0.40153120  0.42868769  0.80903681    -0.02600
H218        H  0.42688151  0.36651943  0.76936152     0.09600
H219        H  0.48107002  0.36475787  0.91575429     0.07600
Br220      Br  0.50841107  0.30383154  0.87306151    -0.03000
C221        C  0.49792831  0.34004141  0.62841137    -0.09600
C222        C  0.47097183  0.32752898  0.66008182     0.06600
C223        C  0.43590175  0.34020669  0.65893021    -0.03400
C224        C  0.42993790  0.36855942  0.63063991    -0.07800
C225        C  0.45704840  0.38225324  0.59998774     0.05700
C226        C  0.49048082  0.36619764  0.59695320    -0.02900
Br227      Br  0.52708280  0.37961178  0.55186937    -0.02600
H228        H  0.52490304  0.33028738  0.62891395     0.09600
H229        H  0.40377026  0.37974916  0.63235463     0.07600
Br230      Br  0.39565363  0.32065718  0.69697030    -0.03000
C231        C  0.49329040  0.13616112  0.86553831    -0.09600
C232        C  0.46132086  0.14077447  0.84227624     0.06600
C233        C  0.42682024  0.12481067  0.85869321    -0.03400
C234        C  0.42495943  0.10236960  0.89602922    -0.07800
C235        C  0.45723571  0.09485578  0.91752955     0.05700
C236        C  0.49164137  0.11355614  0.90299540    -0.02900
Br237      Br  0.03786598  0.10838820  0.93058134    -0.02600
H238        H  0.01990299  0.14873679  0.85324664     0.09600
H239        H  0.39816008  0.08902391  0.90660376     0.07600
Br240      Br  0.38161085  0.13117565  0.82959263    -0.03000
C241        C  0.42455490  0.09703968  0.68784096    -0.09600
C242        C  0.45207803  0.12659849  0.68254408     0.06600
C243        C  0.47434494  0.12909273  0.64404707    -0.03400
C244        C  0.46939756  0.10184463  0.61282694    -0.07800
C245        C  0.44355087  0.07103206  0.61984574     0.05700
C246        C  0.42061818  0.06921862  0.65781266    -0.02900
Br247      Br  0.38408788  0.02905396  0.67238734    -0.02600
H248        H  0.40680900  0.09473701  0.71676556     0.09600
H249        H  0.98774882  0.10350184  0.58445615     0.07600
Br250      Br  0.01491714  0.16631349  0.63465243    -0.03000
C251        C  0.28241629  0.47842650  0.85909268    -0.09600
C252        C  0.28278102  0.44977511  0.82999627     0.06600
C253        C  0.30191742  0.42006224  0.84165372    -0.03400
C254        C  0.32217559  0.42060482  0.88006736    -0.07800
C255        C  0.32472052  0.45079278  0.90718453     0.05700
C256        C  0.30317581  0.47927059  0.89722874    -0.02900
Br257      Br  0.30182825  0.02064971  0.93361728    -0.02600
H258        H  0.26715758  0.50109513  0.85119028     0.09600
H259        H  0.33820343  0.39829193  0.88693727     0.07600
Br260      Br  0.30217528  0.37826414  0.80594834    -0.03000
C261        C  0.29873651  0.41857016  0.65145482    -0.09600
C262        C  0.28687222  0.45086964  0.66618132     0.06600
C263        C  0.29510985  0.48280161  0.64051853    -0.03400
C264        C  0.31792651  0.48278516  0.60322095    -0.07800
C265        C  0.33227300  0.45101542  0.58981811     0.05700
C266        C  0.32030750  0.41809813  0.61305404    -0.02900
Br267      Br  0.33182553  0.37138486  0.59501362    -0.02600
H268        H  0.29114777  0.39355334  0.66997290     0.09600
H269        H  0.32594377  0.00840373  0.58550434     0.07600
Br270      Br  0.27787398  0.02793150  0.65633823    -0.03000
C271        C  0.02092494  0.46514570  0.85196821    -0.09600
C272        C  0.03341747  0.48089172  0.89084305     0.06600
C273        C  0.07186120  0.99157028  0.89516771    -0.03400
C274        C  0.09634707  0.98805010  0.85986650    -0.07800
C275        C  0.08314711  0.47352258  0.82017808     0.05700
C276        C  0.04520855  0.46044754  0.81745178    -0.02900
Br277      Br  0.02416815  0.43511829  0.76818453    -0.02600
H278        H  0.99183589  0.45694183  0.84797729     0.09600
H279        H  0.12518169  0.99836879  0.86270487     0.07600
Br280      Br  0.09148128  0.01441348  0.94652909    -0.03000
C281        C  0.05583976  0.46800870  0.60897915    -0.09600
C282        C  0.05272026  0.50250595  0.59073552     0.06600
C283        C  0.07591853  0.03267284  0.60617207    -0.03400
C284        C  0.09875558  0.02803693  0.64179514    -0.07800
C285        C  0.09960167  0.49373465  0.66130699     0.04700
C286        C  0.07942464  0.46335295  0.64335692    -0.02900
Br287      Br  0.08148031  0.41506377  0.66639687    -0.02600
H288        H  0.03871814  0.44470778  0.59769929     0.09600
H289        H  0.11445694  0.05145145  0.65547854     0.07600
Br290      Br  0.07479920  0.08117118  0.58348287    -0.03000
C291        C  0.11747359  0.48982024  0.20350658     0.02700
C292        C  0.09585497  0.48929443  0.24145360    -0.13500
C293        C  0.10831525  0.47596860  0.28095379     0.00200
C294        C  0.14484349  0.96591035  0.28254497    -0.12000
C295        C  0.16860792  0.96932942  0.24499178     0.02700
C296        C  0.15402222  0.98142978  0.20547584    -0.11400
H297        H  0.06846223  0.49799994  0.23957684     0.08200
H298        H  0.15376832  0.95489594  0.31299902     0.05800
H299        H  0.17011818  0.98447956  0.17551602     0.05600
C300        C  0.26598585  0.95122599  0.20796056     0.02700
C301        C  0.28382654  0.94934297  0.24793572    -0.13500
C302        C  0.26417523  0.95205903  0.28744009     0.00200
C303        C  0.22690513  0.95886596  0.28631098    -0.12000
C304        C  0.20812280  0.96048309  0.24646692     0.02700
C305        C  0.22816328  0.95506494  0.20761858    -0.11400
H306        H  0.31315381  0.94646487  0.24825448     0.08200
H307        H  0.21313585  0.96326959  0.31691450     0.05800
H308        H  0.21517443  0.95415744  0.17629330     0.05600
C309        C  0.45868693  0.65144969  0.22002458     0.02700
C310        C  0.46043388  0.63633361  0.26213091    -0.13500
C311        C  0.46441185  0.65821803  0.29848003     0.00200
C312        C  0.46913145  0.69598726  0.29291449    -0.12000
C313        C  0.46689668  0.71260638  0.25114872     0.02700
C314        C  0.46090361  0.68950720  0.21491381    -0.11400
H315        H  0.45787472  0.60710723  0.26696091     0.08200
H316        H  0.47414002  0.71186056  0.32166998     0.05800
H317        H  0.45679167  0.70039192  0.18273869     0.05600
C318        C  0.48092934  0.80886484  0.20025046     0.02700
C319        C  0.47722556  0.77097371  0.20442758    -0.13500
C320        C  0.47067958  0.75356110  0.24594708     0.00200
C321        C  0.46573738  0.77600760  0.28219220    -0.12000
C322        C  0.47167341  0.81412751  0.27786552     0.02700
C323        C  0.48230748  0.82977385  0.23727996    -0.11400
H324        H  0.47785934  0.75590901  0.17488501     0.08200
H325        H  0.45550614  0.76442255  0.31326526     0.05800
H326        H  0.48573152  0.85910449  0.23325737     0.05600
O327        O  0.43648294  0.50758455  0.10749119    -0.80600
O328        O  0.37099900  0.98620168  0.44623728    -0.80600
O329        O  0.48252981  0.55157573  0.46459386    -0.80600
O330        O  0.37579079  0.92667395  0.04085152    -0.80600
O331        O  0.42385780  0.54366728  0.45432468    -0.80700
O332        O  0.38236172  0.98546126  0.05076447    -0.80600
O333        O  0.37090522  0.92725613  0.45139210    -0.80600
O334        O  0.45405792  0.54285060  0.05014406    -0.80600
C335        C  0.44438551  0.53911631  0.09128419     1.09100
C336        C  0.35554911  0.95491022  0.43897687     1.09000
C337        C  0.45419508  0.56334254  0.44905867     1.09100
C338        C  0.36394333  0.95467030  0.05715434     1.09000
O339        O  0.43265705  0.93792362  0.08476709    -0.80600
O340        O  0.47674169  0.00227308  0.40885020    -0.80700
O341        O  0.02439875  0.53082993  0.03095633    -0.80600
O342        O  0.44729919  0.91273209  0.44465799    -0.80600
O343        O  0.42300541  0.94765734  0.39733064    -0.80700
O344        O  0.49303909  0.98313981  0.06358098    -0.80600
O345        O  0.45329407  0.90936575  0.03039191    -0.80600
O346        O  0.00885006  0.48324038  0.46396566    -0.80600
Co347      Co  0.43655363  0.98606064  0.05275645     1.51500
Co348      Co  0.42374824  0.99473550  0.43047405     1.51700
Co349      Co  0.48006923  0.50914664  0.50637858     1.51600
Co350      Co  0.41362413  0.92197956  0.49206358     1.51500
O351        O  0.43587195  0.97482665  0.48977054    -1.42500
C352        C  0.44843990  0.91173527  0.07060179     1.09000
C353        C  0.00524279  0.98901787  0.42323229     1.09100
C354        C  0.02254809  0.00613659  0.06014086     1.09000
C355        C  0.43912065  0.91963055  0.40600333     1.09000
C356        C  0.43880707  0.86596508  0.30136856    -0.09600
C357        C  0.46144394  0.83884021  0.31253888     0.06600
C358        C  0.47613707  0.83848464  0.35456594    -0.03400
C359        C  0.46875295  0.86526559  0.38383910    -0.07800
C360        C  0.44677172  0.89299022  0.37235872     0.05700
C361        C  0.43174806  0.89302320  0.33025507    -0.02900
Br362      Br  0.40188120  0.92892747  0.30891569    -0.02600
H363        H  0.42705222  0.86666685  0.26922616     0.09600
H364        H  0.48079604  0.86446457  0.41584261     0.07600
Br365      Br  0.50802532  0.80350583  0.37315802    -0.03000
C366        C  0.49815616  0.84010065  0.12850023    -0.09600
C367        C  0.47111083  0.82747014  0.16002248     0.06600
C368        C  0.43602396  0.84010413  0.15875322    -0.03400
C369        C  0.43010159  0.86850384  0.13050009    -0.07800
C370        C  0.45729509  0.88231025  0.09999984     0.05700
C371        C  0.49076267  0.86630217  0.09706425    -0.02900
Br372      Br  0.52745301  0.87979416  0.05209969    -0.02600
H373        H  0.52514864  0.83038913  0.12909051     0.09600
H374        H  0.40390045  0.87963808  0.13211608     0.07600
Br375      Br  0.39570478  0.82044300  0.19662528    -0.03000
C376        C  0.49339126  0.63568584  0.36526308    -0.09600
C377        C  0.46135520  0.64075118  0.34236427     0.06600
C378        C  0.42681229  0.62518279  0.35908994    -0.03400
C379        C  0.42492543  0.60271075  0.39640683    -0.07800
C380        C  0.45721284  0.59478590  0.41758011     0.05700
C381        C  0.49172218  0.61306084  0.40269682    -0.02900
Br382      Br  0.03806830  0.60720960  0.42965524    -0.02600
H383        H  0.02004617  0.64791868  0.35269506     0.09600
H384        H  0.39806822  0.58967007  0.40723291     0.07600
Br385      Br  0.38156088  0.63209823  0.33039017    -0.03000
C386        C  0.42443389  0.59679455  0.18811412    -0.09600
C387        C  0.45187071  0.62642117  0.18269565     0.06600
C388        C  0.47402263  0.62895115  0.14410788    -0.03400
C389        C  0.46904431  0.60168920  0.11291136    -0.07800
C390        C  0.44327912  0.57082926  0.12002555     0.05700
C391        C  0.42046178  0.56896517  0.15809489    -0.02900
Br392      Br  0.38401928  0.52874688  0.17279896    -0.02600
H393        H  0.40677149  0.59445941  0.21710845     0.09600
H394        H  0.98730341  0.60338998  0.08445797     0.07600
Br395      Br  0.01447966  0.66626213  0.13451847    -0.03000
C396        C  0.28278825  0.97861722  0.35902561    -0.09600
C397        C  0.28313930  0.94996634  0.32992940     0.06600
C398        C  0.30224043  0.92023121  0.34159930    -0.03400
C399        C  0.32245710  0.92073988  0.38004552    -0.07800
C400        C  0.32498978  0.95091198  0.40718892     0.05700
C401        C  0.30350042  0.97942609  0.39719506    -0.02900
Br402      Br  0.30149713  0.52048814  0.43365860    -0.02600
H403        H  0.26756396  0.00130723  0.35110614     0.09600
H404        H  0.33845588  0.89840785  0.38693148     0.07600
Br405      Br  0.30248955  0.87844072  0.30588196    -0.03000
C406        C  0.29894090  0.91878434  0.15137065    -0.09600
C407        C  0.28713634  0.95110585  0.16610359     0.06600
C408        C  0.29536215  0.98302161  0.14040670    -0.03400
C409        C  0.31818335  0.98297944  0.10311702    -0.07800
C410        C  0.33251458  0.95119347  0.08974704     0.05700
C411        C  0.32048633  0.91828283  0.11295905    -0.02900
Br412      Br  0.33184911  0.87153979  0.09484281    -0.02600
H413        H  0.29131826  0.89377272  0.16988679     0.09600
H414        H  0.32566664  0.50821809  0.08562136     0.07600
Br415      Br  0.27765464  0.52770520  0.15652567    -0.03000
C416        C  0.02124190  0.96492500  0.35206479    -0.09600
C417        C  0.03366420  0.98096402  0.39079806     0.06600
C418        C  0.07165437  0.49123021  0.39530157    -0.03400
C419        C  0.09611612  0.48777317  0.35995425    -0.07800
C420        C  0.08344146  0.97348671  0.32022566     0.05700
C421        C  0.04556211  0.96016829  0.31760263    -0.02900
Br422      Br  0.02468834  0.93444507  0.26853397    -0.02600
H423        H  0.99217351  0.95653463  0.34813855     0.09600
H424        H  0.12499061  0.49788714  0.36288508     0.07600
Br425      Br  0.09140664  0.51358854  0.44688921    -0.03000
C426        C  0.05593539  0.96803394  0.10903957    -0.09600
C427        C  0.05301107  0.00252364  0.09064937     0.06600
C428        C  0.07544425  0.53272299  0.10638603    -0.03400
C429        C  0.09834080  0.52812311  0.14195471    -0.07800
C430        C  0.09980339  0.99366462  0.16129655     0.04700
C431        C  0.07949839  0.96332721  0.14342186    -0.02900
Br432      Br  0.08143422  0.91502767  0.16648975    -0.02600
H433        H  0.03868641  0.94478310  0.09786509     0.09600
H434        H  0.11390571  0.55157454  0.15573144     0.07600
Br435      Br  0.07394072  0.58125732  0.08399343    -0.03000
C436        C  0.11747373  0.48982167  0.70350583     0.02700
C437        C  0.09585495  0.48929548  0.74145277    -0.13500
C438        C  0.10831497  0.47596912  0.78095284     0.00200
C439        C  0.14484320  0.96591188  0.78254474    -0.12000
C440        C  0.16860796  0.96933151  0.74499185     0.02700
C441        C  0.15402257  0.98143238  0.70547599    -0.11400
H442        H  0.06846225  0.49800117  0.73957600     0.08200
H443        H  0.15376784  0.95489697  0.81299861     0.05800
H444        H  0.17011889  0.98448253  0.67551622     0.05600
C445        C  0.26598565  0.95122728  0.70796093     0.02700
C446        C  0.28382621  0.94934389  0.74793613    -0.13500
C447        C  0.26417486  0.95205994  0.78744049     0.00200
C448        C  0.22690486  0.95886733  0.78631132    -0.12000
C449        C  0.20812272  0.96048490  0.74646715     0.02700
C450        C  0.22816322  0.95506672  0.70761887    -0.11400
H451        H  0.31315331  0.94646550  0.74825492     0.08200
H452        H  0.21313558  0.96327093  0.81691469     0.05800
H453        H  0.21517438  0.95415951  0.67629341     0.05600
C454        C  0.45868603  0.65144961  0.72002512     0.02700
C455        C  0.46043367  0.63633365  0.76213145    -0.13500
C456        C  0.46441153  0.65821815  0.79848050     0.00200
C457        C  0.46913044  0.69598740  0.79291491    -0.12000
C458        C  0.46689517  0.71260635  0.75114909     0.02700
C459        C  0.46090195  0.68950703  0.71491440    -0.11400
H460        H  0.45787511  0.60710728  0.76696150     0.08200
H461        H  0.47413895  0.71186070  0.82167012     0.05800
H462        H  0.45678931  0.70039176  0.68273908     0.05600
C463        C  0.48092781  0.80886450  0.70025007     0.02700
C464        C  0.47722371  0.77097342  0.70442750    -0.13500
C465        C  0.47067799  0.75356102  0.74594713     0.00200
C466        C  0.46573631  0.77600775  0.78219216    -0.12000
C467        C  0.47167259  0.81412762  0.77786511     0.02700
C468        C  0.48230640  0.82977374  0.73727939    -0.11400
H469        H  0.47785720  0.75590839  0.67488470     0.08200
H470        H  0.45550542  0.76442296  0.81326538     0.05800
H471        H  0.48573068  0.85910423  0.73325664     0.05600
O472        O  0.43648415  0.50758472  0.60749128    -0.80600
O473        O  0.37099963  0.98620199  0.94623691    -0.80600
O474        O  0.48252986  0.55157499  0.96459403    -0.80600
O475        O  0.37579063  0.92667415  0.54085222    -0.80600
O476        O  0.42385785  0.54366694  0.95432440    -0.80700
O477        O  0.38236168  0.98546150  0.55076476    -0.80600
O478        O  0.37090579  0.92725639  0.95139147    -0.80600
O479        O  0.45405802  0.54285109  0.55014411    -0.80600
C480        C  0.44438597  0.53911657  0.59128433     1.09100
C481        C  0.35554968  0.95491055  0.93897644     1.09000
C482        C  0.45419531  0.56334202  0.94905861     1.09100
C483        C  0.36394325  0.95467060  0.55715488     1.09000
O484        O  0.43265719  0.93792404  0.58476720    -0.80600
O485        O  0.47674248  0.00227312  0.90885057    -0.80700
O486        O  0.02439787  0.53083069  0.53095604    -0.80600
O487        O  0.44729977  0.91273222  0.94465768    -0.80600
O488        O  0.42300613  0.94765772  0.89733047    -0.80700
O489        O  0.49303916  0.98314042  0.56358050    -0.80600
O490        O  0.45329405  0.90936615  0.53039201    -0.80600
O491        O  0.00885063  0.48323989  0.96396575    -0.80600
Co492      Co  0.43655359  0.98606093  0.55275641     1.51500
Co493      Co  0.42374899  0.99473570  0.93047413     1.51700
Co494      Co  0.48006897  0.50914585  0.00637876     1.51600
Co495      Co  0.41362449  0.92197949  0.99206315     1.51500
O496        O  0.43587239  0.97482655  0.98977056    -1.42500
C497        C  0.44843995  0.91173566  0.57060187     1.09000
C498        C  0.00524257  0.98901711  0.92323266     1.09100
C499        C  0.02254873  0.00613746  0.56014018     1.09000
C500        C  0.43912139  0.91963092  0.90600301     1.09000
C501        C  0.43880679  0.86596541  0.80136835    -0.09600
C502        C  0.46144377  0.83884058  0.81253842     0.06600
C503        C  0.47613777  0.83848534  0.85456501    -0.03400
C504        C  0.46875404  0.86526636  0.88383826    -0.07800
C505        C  0.44677247  0.89299082  0.87235822     0.05700
C506        C  0.43174832  0.89302371  0.83025483    -0.02900
Br507      Br  0.40188153  0.92892814  0.80891568    -0.02600
H508        H  0.42705153  0.86666701  0.76922628     0.09600
H509        H  0.48079760  0.86446555  0.91584135     0.07600
Br510      Br  0.50802681  0.80350695  0.87315617    -0.03000
C511        C  0.49815518  0.84010027  0.62850011    -0.09600
C512        C  0.47110955  0.82746979  0.66002203     0.06600
C513        C  0.43602287  0.84010419  0.65875269    -0.03400
C514        C  0.43010096  0.86850407  0.63049965    -0.07800
C515        C  0.45729474  0.88231046  0.59999978     0.05700
C516        C  0.49076220  0.86630217  0.59706437    -0.02900
Br517      Br  0.52745315  0.87979455  0.55210063    -0.02600
H518        H  0.52514755  0.83038855  0.62909058     0.09600
H519        H  0.40389978  0.87963863  0.63211552     0.07600
Br520      Br  0.39570353  0.82044377  0.69662492    -0.03000
C521        C  0.49339187  0.63568448  0.86526209    -0.09600
C522        C  0.46135544  0.64075133  0.84236477     0.06600
C523        C  0.42681253  0.62518413  0.85909169    -0.03400
C524        C  0.42492584  0.60271182  0.89640837    -0.07800
C525        C  0.45721343  0.59478552  0.91758021     0.05700
C526        C  0.49172298  0.61305923  0.90269562    -0.02900
Br527      Br  0.03807006  0.60720709  0.92965127    -0.02600
H528        H  0.02004663  0.64791680  0.85269217     0.09600
H529        H  0.39806856  0.58967209  0.90723541     0.07600
Br530      Br  0.38156079  0.63210137  0.83039368    -0.03000
C531        C  0.42443411  0.59679370  0.68811511    -0.09600
C532        C  0.45187002  0.62642106  0.68269620     0.06600
C533        C  0.47402117  0.62895192  0.64410777    -0.03400
C534        C  0.46904322  0.60168996  0.61291126    -0.07800
C535        C  0.44327907  0.57082932  0.62002587     0.05700
C536        C  0.42046227  0.56896445  0.65809572    -0.02900
Br537      Br  0.38402080  0.52874538  0.67280020    -0.02600
H538        H  0.40677214  0.59445795  0.71710985     0.09600
H539        H  0.98730072  0.60339083  0.58445719     0.07600
Br540      Br  0.01447640  0.66626325  0.63451715    -0.03000
C541        C  0.28278789  0.97861755  0.85902634    -0.09600
C542        C  0.28313892  0.94996689  0.82992979     0.06600
C543        C  0.30224037  0.92023184  0.84159917    -0.03400
C544        C  0.32245736  0.92074042  0.88004514    -0.07800
C545        C  0.32499012  0.95091237  0.90718878     0.05700
C546        C  0.30350045  0.97942636  0.89719550    -0.02900
Br547      Br  0.30149584  0.52048674  0.93365996    -0.02600
H548        H  0.26756343  0.00130748  0.85110730     0.09600
H549        H  0.33845635  0.89840848  0.88693068     0.07600
Br550      Br  0.30248964  0.87844161  0.80588141    -0.03000
C551        C  0.29894025  0.91878522  0.65137103    -0.09600
C552        C  0.28713619  0.95110695  0.66610403     0.06600
C553        C  0.29536255  0.98302270  0.64040729    -0.03400
C554        C  0.31818373  0.98298029  0.60311762    -0.07800
C555        C  0.33251450  0.95119406  0.58974760     0.05700
C556        C  0.32048577  0.91828351  0.61295951    -0.02900
Br557      Br  0.33184798  0.87154029  0.59484325    -0.02600
H558        H  0.29131722  0.89377373  0.66988701     0.09600
H559        H  0.32566793  0.50821907  0.58562205     0.07600
Br560      Br  0.27765602  0.52770638  0.65652637    -0.03000
C561        C  0.02124129  0.96492594  0.85206415    -0.09600
C562        C  0.03366387  0.98096333  0.89079826     0.06600
C563        C  0.07165489  0.49122826  0.89530171    -0.03400
C564        C  0.09611632  0.48777169  0.85995395    -0.07800
C565        C  0.08344089  0.97348759  0.82022513     0.05700
C566        C  0.04556133  0.96017004  0.81760156    -0.02900
Br567      Br  0.02468680  0.93444893  0.76853176    -0.02600
H568        H  0.99217276  0.95653626  0.84813762     0.09600
H569        H  0.12499099  0.49788475  0.86288506     0.07600
Br570      Br  0.09140807  0.51358396  0.94689047    -0.03000
C571        C  0.05593614  0.96803529  0.60903932    -0.09600
C572        C  0.05301182  0.00252486  0.59064865     0.06600
C573        C  0.07544398  0.53272413  0.60638526    -0.03400
C574        C  0.09834073  0.52812443  0.64195384    -0.07800
C575        C  0.09980388  0.99366665  0.66129626     0.04700
C576        C  0.07949900  0.96332902  0.64342190    -0.02900
Br577      Br  0.08143459  0.91502972  0.66649072    -0.02600
H578        H  0.03868741  0.94478459  0.59786529     0.09600
H579        H  0.11390549  0.55157592  0.65573051     0.07600
Br580      Br  0.07393988  0.58125843  0.58399281    -0.03000
C581        C  0.61765824  0.98974446  0.20350956     0.02700
C582        C  0.59601291  0.98910008  0.24145015    -0.13500
C583        C  0.60857030  0.97592208  0.28097578     0.00200
C584        C  0.64453027  0.46580335  0.28251374    -0.12000
C585        C  0.66831331  0.46918389  0.24497539     0.02700
C586        C  0.65377723  0.48133704  0.20545910    -0.11400
H587        H  0.56854738  0.99763731  0.23956587     0.08200
H588        H  0.65340065  0.45469745  0.31294615     0.05800
H589        H  0.66986947  0.48430545  0.17549174     0.05600
C590        C  0.76568310  0.45097495  0.20801905     0.02700
C591        C  0.78350214  0.44912415  0.24801010    -0.13500
C592        C  0.76383176  0.45185898  0.28749779     0.00200
C593        C  0.72656475  0.45866779  0.28633646    -0.12000
C594        C  0.70780324  0.46026775  0.24647739     0.02700
C595        C  0.72785817  0.45481742  0.20764624    -0.11400
H596        H  0.81283181  0.44625958  0.24835369     0.08200
H597        H  0.71278213  0.46309684  0.31692480     0.05800
H598        H  0.71488168  0.45390860  0.17631140     0.05600
C599        C  0.95886330  0.15157785  0.21992168     0.02700
C600        C  0.96050576  0.13642018  0.26201953    -0.13500
C601        C  0.96446140  0.15827155  0.29840394     0.00200
C602        C  0.96925809  0.19604371  0.29287787    -0.12000
C603        C  0.96708238  0.21270086  0.25112438     0.02700
C604        C  0.96113109  0.18963465  0.21485216    -0.11400
H605        H  0.95788946  0.10718897  0.26681102     0.08200
H606        H  0.97424995  0.21188681  0.32165877     0.05800
H607        H  0.95708164  0.20053262  0.18267096     0.05600
C608        C  0.98089209  0.30896852  0.20028382     0.02700
C609        C  0.97729647  0.27108673  0.20444961    -0.13500
C610        C  0.97084196  0.25365691  0.24596898     0.00200
C611        C  0.96592027  0.27608519  0.28224098    -0.12000
C612        C  0.97176426  0.31420824  0.27791059     0.02700
C613        C  0.98229310  0.32987599  0.23730999    -0.11400
H614        H  0.97792551  0.25604720  0.17489129     0.08200
H615        H  0.95576610  0.26448993  0.31333803     0.05800
H616        H  0.98563876  0.35920821  0.23328925     0.05600
O617        O  0.93682246  0.00777089  0.10741011    -0.80600
O618        O  0.87076571  0.48614304  0.44613648    -0.80600
O619        O  0.98277932  0.05168158  0.46443163    -0.80600
O620        O  0.87550394  0.42655399  0.04079484    -0.80600
O621        O  0.92408704  0.04368902  0.45436340    -0.80700
O622        O  0.88206447  0.48533156  0.05078318    -0.80600
O623        O  0.87070284  0.42719390  0.45132111    -0.80600
O624        O  0.95434673  0.04299438  0.05001150    -0.80600
C625        C  0.94469278  0.03929284  0.09115585     1.09100
C626        C  0.85532762  0.45483675  0.43890768     1.09000
C627        C  0.95438136  0.06341018  0.44899888     1.09100
C628        C  0.86366222  0.45453056  0.05716149     1.09000
O629        O  0.93234073  0.43780683  0.08475489    -0.80600
O630        O  0.97654655  0.50226170  0.40893649    -0.80700
O631        O  0.52469326  0.03093470  0.03087778    -0.80600
O632        O  0.94712633  0.41271349  0.44467396    -0.80600
O633        O  0.92285322  0.44763483  0.39732659    -0.80700
O634        O  0.99275366  0.48303976  0.06368373    -0.80600
O635        O  0.95303003  0.40929239  0.03038050    -0.80600
O636        O  0.50910335  0.98334326  0.46388810    -0.80600
Co637      Co  0.93625644  0.48594918  0.05280435     1.51500
Co638      Co  0.92353995  0.49469928  0.43047464     1.51700
Co639      Co  0.98034803  0.00926683  0.50628246     1.51600
Co640      Co  0.91338605  0.42191037  0.49203173     1.51500
O641        O  0.93559733  0.47476312  0.48980014    -1.42500
C642        C  0.94815510  0.41164625  0.07058602     1.09000
C643        C  0.50501848  0.48895931  0.42330944     1.09100
C644        C  0.52225017  0.50605288  0.06023462     1.09000
C645        C  0.93900907  0.41963665  0.40600840     1.09000
C646        C  0.93872178  0.36590227  0.30145933    -0.09600
C647        C  0.96150659  0.33889527  0.31258935     0.06600
C648        C  0.97633634  0.33866562  0.35454818    -0.03400
C649        C  0.96892649  0.36545469  0.38379954    -0.07800
C650        C  0.94676682  0.39304550  0.37236153     0.05700
C651        C  0.93162651  0.39295994  0.33032005    -0.02900
Br652      Br  0.90153092  0.42868851  0.30903707    -0.02600
H653        H  0.92688184  0.36652050  0.26936155     0.09600
H654        H  0.98106951  0.36475888  0.41575486     0.07600
Br655      Br  0.00841143  0.30383308  0.37306215    -0.03000
C656        C  0.99792789  0.34004116  0.12841053    -0.09600
C657        C  0.97097206  0.32752954  0.16008207     0.06600
C658        C  0.93590204  0.34020739  0.15893110    -0.03400
C659        C  0.92993793  0.36856006  0.13064084    -0.07800
C660        C  0.95704786  0.38225326  0.09998768     0.05700
C661        C  0.99047988  0.36619703  0.09695211    -0.02900
Br662      Br  0.02708060  0.37960971  0.05186645    -0.02600
H663        H  0.02490238  0.33028680  0.12891234     0.09600
H664        H  0.90377061  0.37975013  0.13235631     0.07600
Br665      Br  0.89565429  0.32065786  0.19697169    -0.03000
C666        C  0.99329381  0.13616054  0.36553743    -0.09600
C667        C  0.96132397  0.14077596  0.34227698     0.06600
C668        C  0.92682309  0.12481410  0.35869530    -0.03400
C669        C  0.92496208  0.10237281  0.39603118    -0.07800
C670        C  0.95723845  0.09485698  0.41752993     0.05700
C671        C  0.99164462  0.11355543  0.40299435    -0.02900
Br672      Br  0.53785963  0.10839735  0.43059104    -0.02600
H673        H  0.51989864  0.14874214  0.35325208     0.09600
H674        H  0.89816252  0.08902857  0.40660678     0.07600
Br675      Br  0.88161358  0.13118180  0.32959642    -0.03000
C676        C  0.92455841  0.09704017  0.18784190    -0.09600
C677        C  0.95208166  0.12659886  0.18254505     0.06600
C678        C  0.97434887  0.12909270  0.14404829    -0.03400
C679        C  0.96940145  0.10184447  0.11282824    -0.07800
C680        C  0.94355433  0.07103217  0.11984682     0.05700
C681        C  0.92062153  0.06921903  0.15781368    -0.02900
Br682      Br  0.88409061  0.02905484  0.17238815    -0.02600
H683        H  0.90681232  0.09473772  0.21676648     0.09600
H684        H  0.48774890  0.10349934  0.08445633     0.07600
Br685      Br  0.51491903  0.16630988  0.13465370    -0.03000
C686        C  0.78241836  0.47843210  0.35909297    -0.09600
C687        C  0.78278228  0.44978064  0.32999664     0.06600
C688        C  0.80191750  0.42006699  0.34165420    -0.03400
C689        C  0.82217520  0.42060875  0.38006814    -0.07800
C690        C  0.82472099  0.45079671  0.40718533     0.05700
C691        C  0.80317757  0.47927548  0.39722920    -0.02900
Br692      Br  0.80183220  0.02065523  0.43361673    -0.02600
H693        H  0.76716050  0.50110143  0.35119028     0.09600
H694        H  0.83820215  0.39829522  0.38693821     0.07600
Br695      Br  0.80217449  0.37826910  0.30594833    -0.03000
C696        C  0.79873828  0.41857620  0.15145655    -0.09600
C697        C  0.78687453  0.45087628  0.16618185     0.06600
C698        C  0.79511212  0.48280753  0.14051773    -0.03400
C699        C  0.81792814  0.48278977  0.10321979    -0.07800
C700        C  0.83227402  0.45101939  0.08981807     0.05700
C701        C  0.82030864  0.41810286  0.11305551    -0.02900
Br702      Br  0.83182604  0.37138889  0.09501697    -0.02600
H703        H  0.79114957  0.39356006  0.16997562     0.09600
H704        H  0.82594495  0.00840706  0.08550065     0.07600
Br705      Br  0.77787638  0.02793782  0.15633402    -0.03000
C706        C  0.52092605  0.46514461  0.35196911    -0.09600
C707        C  0.53341722  0.48089470  0.39084219     0.06600
C708        C  0.57186024  0.99158001  0.39516573    -0.03400
C709        C  0.59634678  0.98805910  0.35986542    -0.07800
C710        C  0.58314796  0.47352545  0.32017838     0.05700
C711        C  0.54521036  0.46044645  0.31745334    -0.02900
Br712      Br  0.52417262  0.43511191  0.26818844    -0.02600
H713        H  0.49183747  0.45693742  0.34797906     0.09600
H714        H  0.62518053  0.99838263  0.36270184     0.07600
Br715      Br  0.59147687  0.01443397  0.44652219    -0.03000
C716        C  0.55583796  0.46800898  0.10897961    -0.09600
C717        C  0.55271859  0.50250613  0.09073568     0.06600
C718        C  0.57591729  0.03267189  0.10617250    -0.03400
C719        C  0.59875445  0.02803573  0.14179541    -0.07800
C720        C  0.59960068  0.49373474  0.16130657     0.04700
C721        C  0.57942335  0.46335308  0.14335680    -0.02900
Br722      Br  0.58147996  0.41506382  0.16639593    -0.02600
H723        H  0.53871576  0.44470784  0.09770004     0.09600
H724        H  0.61445672  0.05145016  0.15547824     0.07600
Br725      Br  0.57479976  0.08117007  0.08348202    -0.03000
C726        C  0.61765860  0.98974631  0.70350868     0.02700
C727        C  0.59601307  0.98910166  0.74144916    -0.13500
C728        C  0.60856998  0.97592283  0.78097464     0.00200
C729        C  0.64452997  0.46580468  0.78251362    -0.12000
C730        C  0.66831330  0.46918598  0.74497555     0.02700
C731        C  0.65377757  0.48133980  0.70545941    -0.11400
H732        H  0.56854764  0.99763933  0.73956482     0.08200
H733        H  0.65340011  0.45469825  0.81294558     0.05800
H734        H  0.66987014  0.48430874  0.67549218     0.05600
C735        C  0.76568273  0.45097605  0.70801933     0.02700
C736        C  0.78350167  0.44912487  0.74801039    -0.13500
C737        C  0.76383135  0.45185979  0.78749809     0.00200
C738        C  0.72656447  0.45866913  0.78633677    -0.12000
C739        C  0.70780309  0.46026952  0.74647764     0.02700
C740        C  0.72785794  0.45481909  0.70764648    -0.11400
H741        H  0.81283126  0.44625997  0.74835395     0.08200
H742        H  0.71278189  0.46309822  0.81692498     0.05800
H743        H  0.71488145  0.45391057  0.67631161     0.05600
C744        C  0.95886259  0.15157784  0.71992228     0.02700
C745        C  0.96050549  0.13642024  0.76202012    -0.13500
C746        C  0.96446096  0.15827163  0.79840453     0.00200
C747        C  0.96925716  0.19604381  0.79287842    -0.12000
C748        C  0.96708118  0.21270085  0.75112490     0.02700
C749        C  0.96112977  0.18963460  0.71485276    -0.11400
H750        H  0.95788964  0.10718900  0.76681164     0.08200
H751        H  0.97424895  0.21188698  0.82165925     0.05800
H752        H  0.95707983  0.20053236  0.68267192     0.05600
C753        C  0.98089098  0.30896822  0.70028359     0.02700
C754        C  0.97729513  0.27108643  0.70444963    -0.13500
C755        C  0.97084078  0.25365688  0.74596919     0.00200
C756        C  0.96591950  0.27608538  0.78224107    -0.12000
C757        C  0.97176369  0.31420840  0.77791030     0.02700
C758        C  0.98229233  0.32987590  0.73730955    -0.11400
H759        H  0.97792398  0.25604689  0.67489159     0.08200
H760        H  0.95576563  0.26449037  0.81333828     0.05800
H761        H  0.98563818  0.35920806  0.73328860     0.05600
O762        O  0.93682370  0.00777130  0.60741012    -0.80600
O763        O  0.87076642  0.48614354  0.94613597    -0.80600
O764        O  0.98277924  0.05168089  0.96443197    -0.80600
O765        O  0.87550364  0.42655387  0.54079554    -0.80600
O766        O  0.92408695  0.04368853  0.95436338    -0.80700
O767        O  0.88206422  0.48533148  0.55078344    -0.80600
O768        O  0.87070349  0.42719436  0.95132043    -0.80600
O769        O  0.95434696  0.04299502  0.55001141    -0.80600
C770        C  0.94469337  0.03929332  0.59115586     1.09100
C771        C  0.85532829  0.45483726  0.93890711     1.09000
C772        C  0.95438138  0.06340960  0.94899904     1.09100
C773        C  0.86366197  0.45453053  0.55716202     1.09000
O774        O  0.93234070  0.43780696  0.58475505    -0.80600
O775        O  0.97654743  0.50226195  0.90893678    -0.80700
O776        O  0.52469244  0.03093582  0.53087742    -0.80600
O777        O  0.94712697  0.41271381  0.94467361    -0.80600
O778        O  0.92285403  0.44763538  0.89732634    -0.80700
O779        O  0.99275353  0.48304012  0.56368341    -0.80600
O780        O  0.95302986  0.40929250  0.53038065    -0.80600
O781        O  0.50910386  0.98334248  0.96388819    -0.80600
Co782      Co  0.93625620  0.48594920  0.55280437     1.51500
Co783      Co  0.92354078  0.49469967  0.93047460     1.51700
Co784      Co  0.98034776  0.00926604  0.00628273     1.51600
Co785      Co  0.91338651  0.42191056  0.99203127     1.51500
O786        O  0.93559785  0.47476326  0.98980009    -1.42500
C787        C  0.94815501  0.41164637  0.57058615     1.09000
C788        C  0.50501821  0.48895834  0.92330978     1.09100
C789        C  0.52225080  0.50605381  0.56023408     1.09000
C790        C  0.93900984  0.41963717  0.90600804     1.09000
C791        C  0.93872170  0.36590267  0.80145913    -0.09600
C792        C  0.96150657  0.33889569  0.81258896     0.06600
C793        C  0.97633705  0.33866635  0.85454740    -0.03400
C794        C  0.96892749  0.36545550  0.88379876    -0.07800
C795        C  0.94676758  0.39304616  0.87236105     0.05700
C796        C  0.93162688  0.39296054  0.83031976    -0.02900
Br797      Br  0.90153144  0.42868929  0.80903691    -0.02600
H798        H  0.92688137  0.36652075  0.76936148     0.09600
H799        H  0.98107098  0.36475988  0.91575394     0.07600
Br800      Br  0.00841286  0.30383422  0.87306059    -0.03000
C801        C  0.99792704  0.34004074  0.62841043    -0.09600
C802        C  0.97097107  0.32752913  0.66008176     0.06600
C803        C  0.93590118  0.34020729  0.65893078    -0.03400
C804        C  0.92993741  0.36856006  0.63064060    -0.07800
C805        C  0.95704750  0.38225326  0.59998770     0.05700
C806        C  0.99047943  0.36619687  0.59695222    -0.02900
Br807      Br  0.02708058  0.37960988  0.55186714    -0.02600
H808        H  0.02490167  0.33028616  0.62891237     0.09600
H809        H  0.90376994  0.37975042  0.63235601     0.07600
Br810      Br  0.89565335  0.32065829  0.69697156    -0.03000
C811        C  0.99329402  0.13615958  0.86553704    -0.09600
C812        C  0.96132392  0.14077601  0.84227759     0.06600
C813        C  0.92682305  0.12481482  0.85869670    -0.03400
C814        C  0.92496219  0.10237334  0.89603243    -0.07800
C815        C  0.95723871  0.09485655  0.91753020     0.05700
C816        C  0.99164502  0.11355420  0.90299373    -0.02900
Br817      Br  0.53786136  0.10839502  0.93058763    -0.02600
H818        H  0.51989915  0.14874057  0.85324980     0.09600
H819        H  0.89816255  0.08902966  0.90660867     0.07600
Br820      Br  0.88161329  0.13118350  0.82959890    -0.03000
C821        C  0.92455868  0.09703955  0.68784275    -0.09600
C822        C  0.95208119  0.12659888  0.68254556     0.06600
C823        C  0.97434771  0.12909359  0.64404822    -0.03400
C824        C  0.96940067  0.10184541  0.61282805    -0.07800
C825        C  0.94355442  0.07103247  0.61984698     0.05700
C826        C  0.92062205  0.06921862  0.65781422    -0.02900
Br827      Br  0.88409188  0.02905382  0.67238883    -0.02600
H828        H  0.90681309  0.09473655  0.71676738     0.09600
H829        H  0.48774616  0.10350066  0.58445513     0.07600
Br830      Br  0.51491560  0.16631145  0.63465214    -0.03000
C831        C  0.78241811  0.47843250  0.85909344    -0.09600
C832        C  0.78278194  0.44978117  0.82999689     0.06600
C833        C  0.80191752  0.42006764  0.84165397    -0.03400
C834        C  0.82217559  0.42060938  0.88006764    -0.07800
C835        C  0.82472147  0.45079725  0.90718499     0.05700
C836        C  0.80317776  0.47927590  0.89722935    -0.02900
Br837      Br  0.80183074  0.02065339  0.93361837    -0.02600
H838        H  0.76716012  0.50110171  0.85119113     0.09600
H839        H  0.83820276  0.39829596  0.88693734     0.07600
Br840      Br  0.80217466  0.37826996  0.80594776    -0.03000
C841        C  0.79873750  0.41857684  0.65145695    -0.09600
C842        C  0.78687415  0.45087711  0.66618219     0.06600
C843        C  0.79511223  0.48280831  0.64051814    -0.03400
C844        C  0.81792822  0.48279024  0.60322024    -0.07800
C845        C  0.83227374  0.45101966  0.58981858     0.05700
C846        C  0.82030796  0.41810323  0.61305604    -0.02900
Br847      Br  0.83182501  0.37138909  0.59501774    -0.02600
H848        H  0.79114843  0.39356070  0.66997607     0.09600
H849        H  0.82594614  0.00840809  0.58550186     0.07600
Br850      Br  0.77787755  0.02793884  0.65633525    -0.03000
C851        C  0.52092547  0.46514511  0.85196859    -0.09600
C852        C  0.53341684  0.48089366  0.89084245     0.06600
C853        C  0.57186072  0.99157757  0.89516592    -0.03400
C854        C  0.59634693  0.98805729  0.85986511    -0.07800
C855        C  0.58314740  0.47352594  0.82017803     0.05700
C856        C  0.54520963  0.46044768  0.81745245    -0.02900
Br857      Br  0.52417135  0.43511503  0.76818650    -0.02600
H858        H  0.49183668  0.45693858  0.84797819     0.09600
H859        H  0.62518085  0.99837960  0.86270197     0.07600
Br860      Br  0.59147846  0.01442826  0.94652386    -0.03000
C861        C  0.55583888  0.46801045  0.60897936    -0.09600
C862        C  0.55271931  0.50250749  0.59073516     0.06600
C863        C  0.57591724  0.03267340  0.60617151    -0.03400
C864        C  0.59875461  0.02803744  0.64179432    -0.07800
C865        C  0.59960109  0.49373693  0.66130653     0.04700
C866        C  0.57942411  0.46335502  0.64335687    -0.02900
Br867      Br  0.58148082  0.41506595  0.66639661    -0.02600
H868        H  0.53871714  0.44470943  0.59770006     0.09600
H869        H  0.61445674  0.05145200  0.65547709     0.07600
Br870      Br  0.57479908  0.08117154  0.58348114    -0.03000
C871        C  0.61747290  0.48982194  0.20350538     0.02700
C872        C  0.59585417  0.48929551  0.24145236    -0.13500
C873        C  0.60831550  0.47597158  0.28095296     0.00200
C874        C  0.64484495  0.96591630  0.28254611    -0.12000
C875        C  0.66860903  0.96933556  0.24499252     0.02700
C876        C  0.65402200  0.98143396  0.20547638    -0.11400
H877        H  0.56846069  0.49799928  0.23957546     0.08200
H878        H  0.65377069  0.95490376  0.31300071     0.05800
H879        H  0.67011777  0.98448429  0.17551607     0.05600
C880        C  0.76598814  0.95123511  0.20796106     0.02700
C881        C  0.78382854  0.94935104  0.24793624    -0.13500
C882        C  0.76417696  0.95206625  0.28744053     0.00200
C883        C  0.72690683  0.95887308  0.28631152    -0.12000
C884        C  0.70812464  0.96049104  0.24646741     0.02700
C885        C  0.72816564  0.95507434  0.20761895    -0.11400
H886        H  0.81315562  0.94647242  0.24825512     0.08200
H887        H  0.71313749  0.96327567  0.31691521     0.05800
H888        H  0.71517712  0.95416737  0.17629336     0.05600
C889        C  0.95868991  0.65145065  0.22002627     0.02700
C890        C  0.96043751  0.63633492  0.26213273    -0.13500
C891        C  0.96441512  0.65821963  0.29848163     0.00200
C892        C  0.96913370  0.69598886  0.29291585    -0.12000
C893        C  0.96689850  0.71260762  0.25114993     0.02700
C894        C  0.96090565  0.68950809  0.21491529    -0.11400
H895        H  0.95787909  0.60710869  0.26696297     0.08200
H896        H  0.97414194  0.71186226  0.32167098     0.05800
H897        H  0.95679315  0.70039259  0.18273997     0.05600
C898        C  0.98093006  0.80886566  0.20025046     0.02700
C899        C  0.97722652  0.77097461  0.20442816    -0.13500
C900        C  0.97068097  0.75356232  0.24594784     0.00200
C901        C  0.96573901  0.77600915  0.28219280    -0.12000
C902        C  0.97167478  0.81412907  0.27786550     0.02700
C903        C  0.98230843  0.82977506  0.23727968    -0.11400
H904        H  0.97786015  0.75590945  0.17488542     0.08200
H905        H  0.95550830  0.76442445  0.31326595     0.05800
H906        H  0.98573228  0.85910566  0.23325669     0.05600
O907        O  0.93648581  0.50758519  0.10749193    -0.80600
O908        O  0.87100092  0.98620438  0.44623789    -0.80600
O909        O  0.98253174  0.55157552  0.46459464    -0.80600
O910        O  0.87579078  0.92667580  0.04085211    -0.80600
O911        O  0.92385977  0.54366850  0.45432483    -0.80700
O912        O  0.88236357  0.98546319  0.05076455    -0.80600
O913        O  0.87090560  0.92725868  0.45139226    -0.80600
O914        O  0.95406083  0.54285150  0.05014516    -0.80600
C915        C  0.94438862  0.53911705  0.09128536     1.09100
C916        C  0.85555025  0.95491331  0.43897726     1.09000
C917        C  0.95419750  0.56334308  0.44905918     1.09100
C918        C  0.86394431  0.95467274  0.05715468     1.09000
O919        O  0.93265755  0.93792403  0.08476717    -0.80600
O920        O  0.97674351  0.00227362  0.40885066    -0.80700
O921        O  0.52439639  0.53083059  0.03095569    -0.80600
O922        O  0.94729896  0.91273278  0.44465801    -0.80600
O923        O  0.92300629  0.94765894  0.39733071    -0.80700
O924        O  0.99304050  0.98313927  0.06358087    -0.80600
O925        O  0.95329360  0.90936578  0.03039182    -0.80600
O926        O  0.50884979  0.48324145  0.46396463    -0.80600
Co927      Co  0.93655517  0.98606115  0.05275667     1.51500
Co928      Co  0.92375008  0.99473708  0.43047442     1.51700
Co929      Co  0.98007016  0.50914645  0.50637940     1.51600
Co930      Co  0.91362432  0.92198100  0.49206365     1.51500
O931        O  0.93587342  0.97482770  0.48977073    -1.42500
C932        C  0.94843989  0.91173542  0.07060171     1.09000
C933        C  0.50524162  0.98901865  0.42323212     1.09100
C934        C  0.52254662  0.00613721  0.06014111     1.09000
C935        C  0.93912119  0.91963190  0.40600327     1.09000
C936        C  0.93880813  0.86596655  0.30136845    -0.09600
C937        C  0.96144551  0.83884207  0.31253865     0.06600
C938        C  0.97613936  0.83848716  0.35456535    -0.03400
C939        C  0.96875495  0.86526800  0.38383850    -0.07800
C940        C  0.94677289  0.89299203  0.37235840     0.05700
C941        C  0.93174898  0.89302470  0.33025489    -0.02900
Br942      Br  0.90188161  0.92892860  0.30891571    -0.02600
H943        H  0.92705298  0.86666802  0.26922612     0.09600
H944        H  0.98079850  0.86446741  0.41584182     0.07600
Br945      Br  0.00802918  0.80350957  0.37315673    -0.03000
C946        C  0.99815584  0.84010003  0.12849910    -0.09600
C947        C  0.97111105  0.82747047  0.16002239     0.06600
C948        C  0.93602443  0.84010503  0.15875389    -0.03400
C949        C  0.93010212  0.86850474  0.13050082    -0.07800
C950        C  0.95729511  0.88231035  0.09999962     0.05700
C951        C  0.99076215  0.86630140  0.09706302    -0.02900
Br952      Br  0.02745158  0.87979211  0.05209708    -0.02600
H953        H  0.02514804  0.83038793  0.12908865     0.09600
H954        H  0.90390128  0.87963967  0.13211763     0.07600
Br955      Br  0.89570560  0.82044469  0.19662690    -0.03000
C956        C  0.99339540  0.63568472  0.36526247    -0.09600
C957        C  0.96135895  0.64075299  0.34236596     0.06600
C958        C  0.92681580  0.62518699  0.35909345    -0.03400
C959        C  0.92492877  0.60271445  0.39640998    -0.07800
C960        C  0.95721627  0.59478675  0.41758100     0.05700
C961        C  0.99172620  0.61305922  0.40269577    -0.02900
Br962      Br  0.53806362  0.60721583  0.42966033    -0.02600
H963        H  0.52004187  0.64792188  0.35269726     0.09600
H964        H  0.89807129  0.58967562  0.40723746     0.07600
Br965      Br  0.88156418  0.63210601  0.33039617    -0.03000
C966        C  0.92443789  0.59679455  0.18811656    -0.09600
C967        C  0.95187395  0.62642177  0.18269755     0.06600
C968        C  0.97402522  0.62895225  0.14410922    -0.03400
C969        C  0.96904707  0.60169019  0.11291276    -0.07800
C970        C  0.94328250  0.57082980  0.12002729     0.05700
C971        C  0.92046577  0.56896524  0.15809721    -0.02900
Br972      Br  0.88402381  0.52874660  0.17280180    -0.02600
H973        H  0.90677590  0.59445903  0.21711128     0.09600
H974        H  0.48730117  0.60338854  0.08445702     0.07600
Br975      Br  0.51447838  0.66625984  0.13451830    -0.03000
C976        C  0.78279047  0.97862318  0.35902629    -0.09600
C977        C  0.78314070  0.94997244  0.32992982     0.06600
C978        C  0.80224089  0.92023657  0.34159929    -0.03400
C979        C  0.82245730  0.92074421  0.38004567    -0.07800
C980        C  0.82499088  0.95091615  0.40718937     0.05700
C981        C  0.80350264  0.97943119  0.39719567    -0.02900
Br982      Br  0.80149921  0.52049217  0.43365990    -0.02600
H983        H  0.76756704  0.00131374  0.35110696     0.09600
H984        H  0.83845528  0.89841168  0.38693138     0.07600
Br985      Br  0.80248940  0.87844665  0.30588090    -0.03000
C986        C  0.79894248  0.91879116  0.15137308    -0.09600
C987        C  0.78713847  0.95111347  0.16610421     0.06600
C988        C  0.79536443  0.98302822  0.14040550    -0.03400
C989        C  0.81818507  0.98298421  0.10311562    -0.07800
C990        C  0.83251571  0.95119742  0.08974741     0.05700
C991        C  0.82048743  0.91828782  0.11296142    -0.02900
Br992      Br  0.83184964  0.87154387  0.09484802    -0.02600
H993        H  0.79131973  0.89378032  0.16989071     0.09600
H994        H  0.82566957  0.50822302  0.08561985     0.07600
Br995      Br  0.77765924  0.52771308  0.15652410    -0.03000
C996        C  0.52124322  0.96492311  0.35206690    -0.09600
C997        C  0.53366392  0.98096630  0.39079833     0.06600
C998        C  0.57165389  0.49123631  0.39529945    -0.03400
C999        C  0.59611590  0.48777941  0.35995234    -0.07800
C1000       C  0.58344230  0.97348981  0.32022687     0.05700
C1001       C  0.54556407  0.96016683  0.31760527    -0.02900
Br1002     Br  0.52469312  0.93443821  0.26853908    -0.02600
H1003       H  0.49217501  0.95652901  0.34814157     0.09600
H1004       H  0.62498978  0.49789598  0.36288215     0.07600
Br1005     Br  0.59140455  0.51359979  0.44688481    -0.03000
C1006       C  0.55593286  0.96803477  0.10904137    -0.09600
C1007       C  0.55300946  0.00252430  0.09064996     0.06600
C1008       C  0.57544283  0.53272420  0.10638489    -0.03400
C1009       C  0.59833977  0.52812446  0.14195328    -0.07800
C1010       C  0.59980203  0.99366553  0.16129704     0.04700
C1011       C  0.57949622  0.96332816  0.14342338    -0.02900
Br1012     Br  0.58143212  0.91502874  0.16649160    -0.02600
H1013       H  0.53868332  0.94478437  0.09786811     0.09600
H1014       H  0.61390487  0.55157598  0.15572966     0.07600
Br1015     Br  0.57393951  0.58125836  0.08399165    -0.03000
C1016       C  0.61747317  0.48982446  0.70350548     0.02700
C1017       C  0.59585415  0.48929744  0.74145231    -0.13500
C1018       C  0.60831516  0.47597285  0.78095275     0.00200
C1019       C  0.64484448  0.96591670  0.78254498    -0.12000
C1020       C  0.66860892  0.96933652  0.74499178     0.02700
C1021       C  0.65402231  0.98143556  0.70547564    -0.11400
H1022       H  0.56846066  0.49800126  0.73957531     0.08200
H1023       H  0.65376992  0.95490340  0.81299948     0.05800
H1024       H  0.67011816  0.98448607  0.67551574     0.05600
C1025       C  0.76598815  0.95123574  0.70796132     0.02700
C1026       C  0.78382812  0.94935100  0.74793670    -0.13500
C1027       C  0.76417621  0.95206591  0.78744085     0.00200
C1028       C  0.72690621  0.95887310  0.78631141    -0.12000
C1029       C  0.70812443  0.96049174  0.74646707     0.02700
C1030       C  0.72816576  0.95507538  0.70761876    -0.11400
H1031       H  0.81315510  0.94647216  0.74825586     0.08200
H1032       H  0.71313648  0.96327552  0.81691528     0.05800
H1033       H  0.71517759  0.95416896  0.67629303     0.05600
C1034       C  0.95868801  0.65145051  0.72002627     0.02700
C1035       C  0.96043596  0.63633488  0.76213274    -0.13500
C1036       C  0.96441420  0.65821964  0.79848155     0.00200
C1037       C  0.96913291  0.69598886  0.79291557    -0.12000
C1038       C  0.96689729  0.71260754  0.75114966     0.02700
C1039       C  0.96090380  0.68950795  0.71491521    -0.11400
H1040       H  0.95787756  0.60710850  0.76696311     0.08200
H1041       H  0.97414171  0.71186245  0.82167069     0.05800
H1042       H  0.95679092  0.70039243  0.68274003     0.05600
C1043       C  0.98092962  0.80886543  0.70024971     0.02700
C1044       C  0.97722569  0.77097433  0.70442749    -0.13500
C1045       C  0.97068011  0.75356222  0.74594733     0.00200
C1046       C  0.96573852  0.77600919  0.78219214    -0.12000
C1047       C  0.97167460  0.81412907  0.77786476     0.02700
C1048       C  0.98230822  0.82977492  0.73727885    -0.11400
H1049       H  0.97785913  0.75590920  0.67488507     0.08200
H1050       H  0.95550776  0.76442449  0.81326567     0.05800
H1051       H  0.98573233  0.85910553  0.73325582     0.05600
O1052       O  0.93648562  0.50758514  0.60749196    -0.80600
O1053       O  0.87100066  0.98620369  0.94623752    -0.80600
O1054       O  0.98253281  0.55157551  0.96459486    -0.80600
O1055       O  0.87579123  0.92667659  0.54085255    -0.80600
O1056       O  0.92386080  0.54366877  0.95432512    -0.80700
O1057       O  0.88236434  0.98546396  0.55076512    -0.80600
O1058       O  0.87090555  0.92725798  0.95139189    -0.80600
O1059       O  0.95405972  0.54285156  0.55014503    -0.80600
C1060       C  0.94438771  0.53911703  0.59128529     1.09100
C1061       C  0.85555006  0.95491254  0.93897700     1.09000
C1062       C  0.95419862  0.56334322  0.94905939     1.09100
C1063       C  0.86394497  0.95467357  0.55715530     1.09000
O1064       O  0.93265836  0.93792467  0.58476713    -0.80600
O1065       O  0.97674341  0.00227310  0.90885109    -0.80700
O1066       O  0.52439660  0.53083165  0.53095533    -0.80600
O1067       O  0.94729898  0.91273216  0.94465796    -0.80600
O1068       O  0.92300636  0.94765846  0.89733075    -0.80700
O1069       O  0.99304137  0.98313985  0.56358014    -0.80600
O1070       O  0.95329402  0.90936640  0.53039162    -0.80600
O1071       O  0.50884940  0.48324038  0.96396496    -0.80600
Co1072     Co  0.93655598  0.98606175  0.55275662     1.51500
Co1073     Co  0.92374995  0.99473652  0.93047448     1.51700
Co1074     Co  0.98007094  0.50914620  0.00637949     1.51600
Co1075     Co  0.91362412  0.92198031  0.99206348     1.51500
O1076       O  0.93587311  0.97482707  0.98977082    -1.42500
C1077       C  0.94844053  0.91173602  0.57060153     1.09000
C1078       C  0.50524216  0.98901813  0.92323225     1.09100
C1079       C  0.52254639  0.00613823  0.56014057     1.09000
C1080       C  0.93912136  0.91963147  0.90600319     1.09000
C1081       C  0.93880842  0.86596675  0.80136794    -0.09600
C1082       C  0.96144571  0.83884218  0.81253793     0.06600
C1083       C  0.97613971  0.83848711  0.85456456    -0.03400
C1084       C  0.96875535  0.86526782  0.88383792    -0.07800
C1085       C  0.94677323  0.89299186  0.87235809     0.05700
C1086       C  0.93174930  0.89302475  0.83025458    -0.02900
Br1087     Br  0.90188177  0.92892865  0.80891575    -0.02600
H1088       H  0.92705314  0.86666833  0.76922555     0.09600
H1089       H  0.98079895  0.86446709  0.91584126     0.07600
Br1090     Br  0.00802960  0.80350945  0.87315550    -0.03000
C1091       C  0.99815596  0.84010017  0.62849873    -0.09600
C1092       C  0.97111088  0.82747034  0.66002158     0.06600
C1093       C  0.93602433  0.84010504  0.65875291    -0.03400
C1094       C  0.93010231  0.86850497  0.63050005    -0.07800
C1095       C  0.95729554  0.88231078  0.59999928     0.05700
C1096       C  0.99076261  0.86630188  0.59706289    -0.02900
Br1097     Br  0.02745255  0.87979324  0.55209771    -0.02600
H1098       H  0.02514820  0.83038809  0.62908851     0.09600
H1099       H  0.90390149  0.87964000  0.63211677     0.07600
Br1100     Br  0.89570530  0.82044488  0.69662573    -0.03000
C1101       C  0.99339595  0.63568371  0.86526087    -0.09600
C1102       C  0.96135895  0.64075309  0.84236599     0.06600
C1103       C  0.92681597  0.62518819  0.85909517    -0.03400
C1104       C  0.92492952  0.60271564  0.89641169    -0.07800
C1105       C  0.95721739  0.59478687  0.91758111     0.05700
C1106       C  0.99172732  0.61305825  0.90269420    -0.02900
Br1107     Br  0.53806494  0.60721197  0.92965667    -0.02600
H1108       H  0.52004247  0.64791949  0.85269524     0.09600
H1109       H  0.89807200  0.58967765  0.90724050     0.07600
Br1110     Br  0.88156370  0.63210873  0.83040024    -0.03000
C1111       C  0.92443656  0.59679393  0.68811690    -0.09600
C1112       C  0.95187202  0.62642165  0.68269751     0.06600
C1113       C  0.97402274  0.62895266  0.64410872    -0.03400
C1114       C  0.96904479  0.60169062  0.61291223    -0.07800
C1115       C  0.94328101  0.57082970  0.62002720     0.05700
C1116       C  0.92046473  0.56896461  0.65809752    -0.02900
Br1117     Br  0.88402388  0.52874518  0.67280281    -0.02600
H1118       H  0.90677500  0.59445802  0.71711175     0.09600
H1119       H  0.48729963  0.60338997  0.58445634     0.07600
Br1120     Br  0.51447534  0.66626209  0.63451692    -0.03000
C1121       C  0.78278913  0.97862198  0.85902732    -0.09600
C1122       C  0.78313969  0.94997163  0.82993031     0.06600
C1123       C  0.80224037  0.92023593  0.84159921    -0.03400
C1124       C  0.82245707  0.92074351  0.88004537    -0.07800
C1125       C  0.82499043  0.95091520  0.90718945     0.05700
C1126       C  0.80350158  0.97942990  0.89719650    -0.02900
Br1127     Br  0.80149968  0.52049253  0.93366019    -0.02600
H1128       H  0.76756535  0.00131237  0.85110851     0.09600
H1129       H  0.83845547  0.89841118  0.88693058     0.07600
Br1130     Br  0.80248924  0.87844636  0.80588027    -0.03000
C1131       C  0.79894275  0.91879196  0.65137345    -0.09600
C1132       C  0.78713886  0.95111428  0.66610471     0.06600
C1133       C  0.79536523  0.98302915  0.64040636    -0.03400
C1134       C  0.81818602  0.98298520  0.60311658    -0.07800
C1135       C  0.83251643  0.95119834  0.58974814     0.05700
C1136       C  0.82048787  0.91828869  0.61296191    -0.02900
Br1137     Br  0.83184981  0.87154472  0.59484830    -0.02600
H1138       H  0.79131974  0.89378108  0.66989081     0.09600
H1139       H  0.82567001  0.50822351  0.58562028     0.07600
Br1140     Br  0.77766023  0.52771423  0.65652467    -0.03000
C1141       C  0.52124281  0.96492420  0.85206588    -0.09600
C1142       C  0.53366414  0.98096557  0.89079814     0.06600
C1143       C  0.57165365  0.49123411  0.89530025    -0.03400
C1144       C  0.59611553  0.48777807  0.85995282    -0.07800
C1145       C  0.58344186  0.97349012  0.82022569     0.05700
C1146       C  0.54556331  0.96016844  0.81760370    -0.02900
Br1147     Br  0.52469121  0.93444211  0.76853643    -0.02600
H1148       H  0.49217458  0.95653124  0.84814034     0.09600
H1149       H  0.62498964  0.49789390  0.86288318     0.07600
Br1150     Br  0.59140484  0.51359469  0.94688707    -0.03000
C1151       C  0.55593339  0.96803620  0.60904043    -0.09600
C1152       C  0.55300957  0.00252564  0.59064908     0.06600
C1153       C  0.57544320  0.53272582  0.60638426    -0.03400
C1154       C  0.59834005  0.52812651  0.64195287    -0.07800
C1155       C  0.59980247  0.99366730  0.66129603     0.04700
C1156       C  0.57949679  0.96332980  0.64342244    -0.02900
Br1157     Br  0.58143258  0.91503049  0.66649106    -0.02600
H1158       H  0.53868392  0.94478558  0.59786720     0.09600
H1159       H  0.61390486  0.55157816  0.65572913     0.07600
Br1160     Br  0.57393942  0.58125984  0.58399075    -0.03000
loop_ 
_geom_bond_atom_site_label_1 
_geom_bond_atom_site_label_2 
_geom_bond_distance 
_geom_bond_site_symmetry_2 
_ccdc_geom_bond_type 
C1            C2   1.392       .  A
C1          C296   1.393       .  A
C1          C430   1.471       .  S
C2            C3   1.400       .  A
C2            H7   1.083       .  S
C3          C294   1.411       .  A
C3          C420   1.493       .  S
C4            C5   1.422       .  A
C4          C293   1.411       .  A
C4            H8   1.081       .  S
C5            C6   1.415       .  A
C5           C14   1.511       .  S
C6          C291   1.393       .  A
C6            H9   1.078       .  S
C10          C11   1.402       .  A
C10          C15   1.399       .  A
C10         C117   1.485       .  S
C11          C12   1.407       .  A
C11          H16   1.084       .  S
C12          C13   1.407       .  A
C12         C107   1.490       .  S
C13          C14   1.414       .  A
C13          H17   1.081       .  S
C14          C15   1.416       .  A
C15          H18   1.078       .  S
C19          C20   1.401       .  A
C19          C24   1.410       .  A
C19          C97   1.498       .  S
C20          C21   1.395       .  A
C20          H25   1.085       .  S
C21          C22   1.399       .  A
C21          C87   1.478       .  S
C22          C23   1.417       .  A
C22          H26   1.079       .  S
C23          C24   1.425       .  A
C23          C30   1.515       .  S
C24          H27   1.077       .  S
C28          C29   1.400       .  A
C28          C33   1.389       .  A
C28          C77   1.469       .  S
C29          C30   1.419       .  A
C29          H34   1.077       .  S
C30          C31   1.426       .  A
C31          C32   1.410       .  A
C31          H35   1.079       .  S
C32          C33   1.391       .  A
C32          C67   1.489       .  S
C33          H36   1.086       .  S
O37          C45   1.262       .  A
O37        Co347   1.877   1_545  S
O38          C46   1.259       .  A
O38         Co58   1.959       .  S
O39          C47   1.260       .  A
O39         Co59   2.001       .  S
O40          C48   1.278       .  A
O40        Co205   2.039   1_554  S
O41          C47   1.259       .  A
O41        Co348   1.974   1_545  S
O42          C48   1.268       .  A
O42         Co57   1.970       .  S
O43          C46   1.276       .  A
O43         Co60   2.033       .  S
O44          C45   1.304       .  A
O44        Co204   2.135       .  S
C45         C100   1.491       .  S
C46         C110   1.489       .  S
C47          C90   1.490       .  S
C48         C120   1.498       .  S
O49          C62   1.264       .  A
O49         Co57   2.007       .  S
O50         C643   1.277       .  A
O50         Co58   2.014       .  S
O51         C354   1.266       .  A
O51        Co784   1.897   1_455  S
O52          C65   1.255       .  A
O52         Co60   1.946       .  S
O53          C65   1.275       .  A
O53         Co58   2.040       .  S
O54         C644   1.296       .  A
O54         Co57   2.102       .  S
O55          C62   1.249       .  A
O55        Co205   1.967   1_554  S
O56         C353   1.273       .  A
O56        Co639   1.986   1_465  S
Co57        O327   1.877       .  S
Co57        O206   1.986   1_554  S
Co58        O331   1.974       .  S
Co58         O61   2.022       .  S
Co59        O189   2.135       .  S
Co59        O776   1.897       .  S
Co59        O636   1.986   1_545  S
Co59        O351   2.026   1_545  S
Co60        O185   2.039       .  S
Co60        O200   1.967       .  S
Co60         O61   2.036       .  S
O61        Co202   1.986       .  S
O61        Co349   2.026       .  S
C62          C80   1.467       .  S
C63         C127   1.481       .  S
C63         O630   1.277   1_455  A
C63         O346   1.273       .  A
C64         C137   1.478       .  S
C64         O341   1.265       .  A
C64         O634   1.296   1_455  A
C65          C70   1.490       .  S
C66          C67   1.410       .  A
C66          C71   1.397       .  A
C66          H73   1.083       .  S
C67          C68   1.405       .  A
C68          C69   1.400       .  A
C68         Br75   1.918       .  S
C69          C70   1.414       .  A
C69          H74   1.083       .  S
C70          C71   1.411       .  A
C71         Br72   1.921       .  S
C76          C77   1.401       .  A
C76          C81   1.404       .  A
C76          H83   1.083       .  S
C77          C78   1.409       .  A
C78          C79   1.387       .  A
C78         Br85   1.922       .  S
C79          C80   1.395       .  A
C79          H84   1.081       .  S
C80          C81   1.415       .  A
C81         Br82   1.920       .  S
C86          C87   1.400       .  A
C86          C91   1.403       .  A
C86         H673   1.084       .  S
C87          C88   1.406       .  A
C88          C89   1.396       .  A
C88         Br95   1.920       .  S
C89          C90   1.408       .  A
C89          H94   1.083       .  S
C90          C91   1.420       .  A
C91        Br672   1.922       .  S
Br92        C671   1.922   1_455  S
H93         C666   1.084   1_455  S
C96          C97   1.404       .  A
C96         C101   1.397       .  A
C96         H103   1.084       .  S
C97          C98   1.415       .  A
C98          C99   1.408       .  A
C98        Br685   1.918       .  S
C99         C100   1.407       .  A
C99         H684   1.084       .  S
C100        C101   1.416       .  A
C101       Br102   1.922       .  S
H104        C679   1.084       .  S
Br105       C678   1.918   1_455  S
C106        C107   1.405       .  A
C106        C111   1.403       .  A
C106        H113   1.084       .  S
C107        C108   1.411       .  A
C108        C109   1.400       .  A
C108       Br115   1.921       .  S
C109        C110   1.407       .  A
C109        H114   1.083       .  S
C110        C111   1.415       .  A
C111       Br402   1.921       .  S
Br112       C401   1.921   1_545  S
C116        C117   1.400       .  A
C116        C121   1.405       .  A
C116        H123   1.083       .  S
C117        C118   1.408       .  A
C118        C119   1.401       .  A
C118       Br415   1.920       .  S
C119        C120   1.409       .  A
C119        H414   1.083       .  S
C120        C121   1.421       .  A
C121       Br122   1.920       .  S
H124        C409   1.083   1_545  S
Br125       C408   1.920   1_545  S
C126        C127   1.401       .  A
C126        C131   1.393       .  A
C126        H133   1.078   1_455  S
C127        C418   1.411       .  A
C128        C129   1.407       .  A
C128        C417   1.411       .  A
C128       Br135   1.918   1_565  S
C129        C420   1.409       .  A
C129        H134   1.081       .  S
C130        C131   1.415       .  A
C130        C419   1.409       .  A
C130        C293   1.494       .  S
C131       Br132   1.924       .  S
C136        C137   1.402       .  A
C136        C141   1.391       .  A
C136        H143   1.076       .  S
C137        C428   1.416       .  A
C138        C139   1.403       .  A
C138        C427   1.416       .  A
C138       Br145   1.920       .  S
C139        C430   1.401   1_545  A
C139        H144   1.083       .  S
C140        C141   1.404       .  A
C140        C429   1.401       .  A
C140        C291   1.470       .  S
C141       Br142   1.921       .  S
C146        C147   1.392       .  A
C146        C441   1.393       .  A
C146        C575   1.471       .  S
C147        C148   1.400       .  A
C147        H152   1.083       .  S
C148        C439   1.411       .  A
C148        C565   1.493       .  S
C149        C438   1.411       .  A
C149        C150   1.422       .  A
C149        H153   1.081       .  S
C150        C151   1.415       .  A
C150        C159   1.511       .  S
C151        C436   1.393       .  A
C151        H154   1.078       .  S
C155        C156   1.402       .  A
C155        C160   1.399       .  A
C155        C262   1.485       .  S
C156        C157   1.407       .  A
C156        H161   1.084       .  S
C157        C158   1.407       .  A
C157        C252   1.490       .  S
C158        C159   1.414       .  A
C158        H162   1.081       .  S
C159        C160   1.416       .  A
C160        H163   1.078       .  S
C164        C165   1.401       .  A
C164        C169   1.410       .  A
C164        C242   1.498       .  S
C165        C166   1.395       .  A
C165        H170   1.085       .  S
C166        C167   1.399       .  A
C166        C232   1.478       .  S
C167        C168   1.417       .  A
C167        H171   1.079       .  S
C168        C169   1.425       .  A
C168        C175   1.515       .  S
C169        H172   1.077       .  S
C173        C174   1.400       .  A
C173        C178   1.389       .  A
C173        C222   1.469       .  S
C174        C175   1.419       .  A
C174        H179   1.077       .  S
C175        C176   1.426       .  A
C176        C177   1.410       .  A
C176        H180   1.079       .  S
C177        C178   1.391       .  A
C177        C212   1.489       .  S
C178        H181   1.086       .  S
O182        C190   1.262       .  A
O182       Co492   1.877   1_545  S
O183        C191   1.259       .  A
O183       Co203   1.959       .  S
O184        C192   1.260       .  A
O184       Co204   2.001   1_556  S
O185        C193   1.278       .  A
O186        C192   1.259       .  A
O186       Co493   1.974   1_545  S
O187        C193   1.268       .  A
O187       Co202   1.970       .  S
O188        C191   1.276       .  A
O188       Co205   2.033       .  S
O189        C190   1.304       .  A
C190        C245   1.491       .  S
C191        C255   1.489       .  S
C192        C235   1.490       .  S
C193        C265   1.498       .  S
O194        C207   1.264       .  A
O194       Co202   2.007       .  S
O195        C788   1.277       .  A
O195       Co203   2.014       .  S
O196        C499   1.266       .  A
O196       Co639   1.897   1_455  S
O197        C210   1.255       .  A
O197       Co205   1.946       .  S
O198        C210   1.275       .  A
O198       Co203   2.040       .  S
O199        C789   1.296       .  A
O199       Co202   2.102       .  S
O200        C207   1.249       .  A
O201        C498   1.273       .  A
O201       Co784   1.986   1_466  S
Co202       O472   1.877       .  S
Co203       O476   1.974       .  S
Co203       O206   2.022       .  S
Co204       O631   1.897       .  S
Co204       O781   1.986   1_544  S
Co204       O496   2.026   1_544  S
Co205       O206   2.036       .  S
O206       Co494   2.026   1_556  S
C207        C225   1.467       .  S
C208        C272   1.481       .  S
C208        O775   1.277   1_455  A
C208        O491   1.273       .  A
C209        C282   1.478       .  S
C209        O486   1.265       .  A
C209        O779   1.296   1_455  A
C210        C215   1.490       .  S
C211        C212   1.410       .  A
C211        C216   1.397       .  A
C211        H218   1.083       .  S
C212        C213   1.405       .  A
C213        C214   1.400       .  A
C213       Br220   1.918       .  S
C214        C215   1.414       .  A
C214        H219   1.083       .  S
C215        C216   1.411       .  A
C216       Br217   1.921       .  S
C221        C222   1.401       .  A
C221        C226   1.404       .  A
C221        H228   1.083       .  S
C222        C223   1.409       .  A
C223        C224   1.387       .  A
C223       Br230   1.922       .  S
C224        C225   1.395       .  A
C224        H229   1.081       .  S
C225        C226   1.415       .  A
C226       Br227   1.920       .  S
C231        C232   1.400       .  A
C231        C236   1.403       .  A
C231        H818   1.084       .  S
C232        C233   1.406       .  A
C233        C234   1.396       .  A
C233       Br240   1.920       .  S
C234        C235   1.408       .  A
C234        H239   1.083       .  S
C235        C236   1.420       .  A
C236       Br817   1.922       .  S
Br237       C816   1.922   1_455  S
H238        C811   1.084   1_455  S
C241        C242   1.404       .  A
C241        C246   1.397       .  A
C241        H248   1.084       .  S
C242        C243   1.415       .  A
C243        C244   1.408       .  A
C243       Br830   1.918       .  S
C244        C245   1.407       .  A
C244        H829   1.084       .  S
C245        C246   1.416       .  A
C246       Br247   1.922       .  S
H249        C824   1.084       .  S
Br250       C823   1.918   1_455  S
C251        C252   1.405       .  A
C251        C256   1.403       .  A
C251        H258   1.084       .  S
C252        C253   1.411       .  A
C253        C254   1.400       .  A
C253       Br260   1.921       .  S
C254        C255   1.407       .  A
C254        H259   1.083       .  S
C255        C256   1.415       .  A
C256       Br547   1.921       .  S
Br257       C546   1.921   1_545  S
C261        C262   1.400       .  A
C261        C266   1.405       .  A
C261        H268   1.083       .  S
C262        C263   1.408       .  A
C263        C264   1.401       .  A
C263       Br560   1.920       .  S
C264        C265   1.409       .  A
C264        H559   1.083       .  S
C265        C266   1.421       .  A
C266       Br267   1.920       .  S
H269        C554   1.083   1_545  S
Br270       C553   1.920   1_545  S
C271        C272   1.401       .  A
C271        C276   1.393       .  A
C271        H278   1.078   1_455  S
C272        C563   1.411       .  A
C273        C562   1.411       .  A
C273        C274   1.407       .  A
C273       Br280   1.918   1_565  S
C274        C565   1.409       .  A
C274        H279   1.081       .  S
C275        C564   1.409       .  A
C275        C276   1.415       .  A
C275        C438   1.494       .  S
C276       Br277   1.924       .  S
C281        C282   1.402       .  A
C281        C286   1.391       .  A
C281        H288   1.076       .  S
C282        C573   1.416       .  A
C283        C572   1.416       .  A
C283        C284   1.403       .  A
C283       Br290   1.920       .  S
C284        C575   1.401   1_545  A
C284        H289   1.083       .  S
C285        C574   1.401       .  A
C285        C286   1.404       .  A
C285        C436   1.470       .  S
C286       Br287   1.921       .  S
C291        C292   1.391       .  A
C292        C293   1.400       .  A
C292        H297   1.083       .  S
C294        C295   1.422       .  A
C294        H298   1.081       .  S
C295        C296   1.415       .  A
C295        C304   1.511       .  S
C296        H299   1.078       .  S
C300        C301   1.402       .  A
C300        C305   1.399       .  A
C300        C407   1.485       .  S
C301        C302   1.407       .  A
C301        H306   1.084       .  S
C302        C303   1.407       .  A
C302        C397   1.490       .  S
C303        C304   1.414       .  A
C303        H307   1.080       .  S
C304        C305   1.416       .  A
C305        H308   1.078       .  S
C309        C310   1.402       .  A
C309        C314   1.411       .  A
C309        C387   1.498       .  S
C310        C311   1.395       .  A
C310        H315   1.085       .  S
C311        C312   1.399       .  A
C311        C377   1.477       .  S
C312        C313   1.417       .  A
C312        H316   1.079       .  S
C313        C314   1.425       .  A
C313        C320   1.515       .  S
C314        H317   1.077       .  S
C318        C319   1.400       .  A
C318        C323   1.389       .  A
C318        C367   1.469       .  S
C319        C320   1.419       .  A
C319        H324   1.077       .  S
C320        C321   1.426       .  A
C321        C322   1.410       .  A
C321        H325   1.079       .  S
C322        C323   1.391       .  A
C322        C357   1.490       .  S
C323        H326   1.086       .  S
O327        C335   1.262       .  A
O328        C336   1.259       .  A
O328       Co348   1.959       .  S
O329        C337   1.260       .  A
O329       Co349   2.000       .  S
O330        C338   1.278       .  A
O330       Co495   2.038   1_554  S
O331        C337   1.259       .  A
O332        C338   1.268       .  A
O332       Co347   1.970       .  S
O333        C336   1.276       .  A
O333       Co350   2.033       .  S
O334        C335   1.304       .  A
O334       Co494   2.135       .  S
C335        C390   1.491       .  S
C336        C400   1.489       .  S
C337        C380   1.490       .  S
C338        C410   1.498       .  S
O339        C352   1.264       .  A
O339       Co347   2.008       .  S
O340        C933   1.277   1_545  A
O340       Co348   2.014   1_545  S
O341      Co1074   1.897   1_455  S
O342        C355   1.255       .  A
O342       Co350   1.946       .  S
O343        C355   1.275       .  A
O343       Co348   2.040       .  S
O344        C934   1.296   1_565  A
O344       Co347   2.101       .  S
O345        C352   1.250       .  A
O345       Co495   1.967   1_554  S
O346       Co929   1.987   1_455  S
Co347       O496   1.986   1_554  S
Co348       O351   2.022       .  S
Co349       O479   2.135       .  S
Co349      O1066   1.897       .  S
Co349       O926   1.987       .  S
Co350       O475   2.038       .  S
Co350       O490   1.967       .  S
Co350       O351   2.036       .  S
O351       Co492   1.986       .  S
C352        C370   1.467       .  S
C353        C417   1.481       .  S
C353        O920   1.277   1_465  A
C354        C427   1.478       .  S
C354        O924   1.296   1_445  A
C355        C360   1.490       .  S
C356        C357   1.410       .  A
C356        C361   1.397       .  A
C356        H363   1.083       .  S
C357        C358   1.405       .  A
C358        C359   1.400       .  A
C358       Br365   1.919       .  S
C359        C360   1.414       .  A
C359        H364   1.083       .  S
C360        C361   1.412       .  A
C361       Br362   1.921       .  S
C366        C367   1.401       .  A
C366        C371   1.404       .  A
C366        H373   1.083       .  S
C367        C368   1.409       .  A
C368        C369   1.387       .  A
C368       Br375   1.922       .  S
C369        C370   1.395       .  A
C369        H374   1.081       .  S
C370        C371   1.415       .  A
C371       Br372   1.920       .  S
C376        C377   1.399       .  A
C376        C381   1.403       .  A
C376        H963   1.084       .  S
C377        C378   1.406       .  A
C378        C379   1.397       .  A
C378       Br385   1.920       .  S
C379        C380   1.408       .  A
C379        H384   1.083       .  S
C380        C381   1.421       .  A
C381       Br962   1.922       .  S
Br382       C961   1.922   1_455  S
H383        C956   1.084   1_455  S
C386        C387   1.405       .  A
C386        C391   1.397       .  A
C386        H393   1.084       .  S
C387        C388   1.415       .  A
C388        C389   1.408       .  A
C388       Br975   1.918       .  S
C389        C390   1.407       .  A
C389        H974   1.083       .  S
C390        C391   1.416       .  A
C391       Br392   1.922       .  S
H394        C969   1.083       .  S
Br395       C968   1.918   1_455  S
C396        C397   1.405       .  A
C396        C401   1.403       .  A
C396        H403   1.084   1_565  S
C397        C398   1.411       .  A
C398        C399   1.400       .  A
C398       Br405   1.921       .  S
C399        C400   1.407       .  A
C399        H404   1.084       .  S
C400        C401   1.415       .  A
C406        C407   1.400       .  A
C406        C411   1.405       .  A
C406        H413   1.083       .  S
C407        C408   1.408       .  A
C408        C409   1.401       .  A
C409        C410   1.409       .  A
C410        C411   1.421       .  A
C411       Br412   1.920       .  S
C416        C417   1.401       .  A
C416        C421   1.393       .  A
C416        H423   1.078   1_455  S
C418        C419   1.407       .  A
C418       Br425   1.918       .  S
C419        H424   1.081       .  S
C420        C421   1.415       .  A
C421       Br422   1.924       .  S
C426        C427   1.402   1_565  A
C426        C431   1.391       .  A
C426        H433   1.075       .  S
C428        C429   1.403       .  A
C428       Br435   1.920       .  S
C429        H434   1.083       .  S
C430        C431   1.404       .  A
C431       Br432   1.921       .  S
C436        C437   1.391       .  A
C437        C438   1.400       .  A
C437        H442   1.083       .  S
C439        C440   1.422       .  A
C439        H443   1.081       .  S
C440        C441   1.415       .  A
C440        C449   1.511       .  S
C441        H444   1.078       .  S
C445        C446   1.402       .  A
C445        C450   1.399       .  A
C445        C552   1.485       .  S
C446        C447   1.407       .  A
C446        H451   1.084       .  S
C447        C448   1.407       .  A
C447        C542   1.490       .  S
C448        C449   1.414       .  A
C448        H452   1.080       .  S
C449        C450   1.416       .  A
C450        H453   1.078       .  S
C454        C455   1.402       .  A
C454        C459   1.411       .  A
C454        C532   1.498       .  S
C455        C456   1.395       .  A
C455        H460   1.085       .  S
C456        C457   1.399       .  A
C456        C522   1.477       .  S
C457        C458   1.417       .  A
C457        H461   1.079       .  S
C458        C459   1.425       .  A
C458        C465   1.515       .  S
C459        H462   1.077       .  S
C463        C464   1.400       .  A
C463        C468   1.389       .  A
C463        C512   1.469       .  S
C464        C465   1.419       .  A
C464        H469   1.077       .  S
C465        C466   1.426       .  A
C466        C467   1.410       .  A
C466        H470   1.079       .  S
C467        C468   1.391       .  A
C467        C502   1.490       .  S
C468        H471   1.086       .  S
O472        C480   1.262       .  A
O473        C481   1.259       .  A
O473       Co493   1.959       .  S
O474        C482   1.260       .  A
O474       Co494   2.000   1_556  S
O475        C483   1.278       .  A
O476        C482   1.259       .  A
O477        C483   1.268       .  A
O477       Co492   1.970       .  S
O478        C481   1.276       .  A
O478       Co495   2.033       .  S
O479        C480   1.304       .  A
C480        C535   1.491       .  S
C481        C545   1.489       .  S
C482        C525   1.490       .  S
C483        C555   1.498       .  S
O484        C497   1.264       .  A
O484       Co492   2.008       .  S
O485       C1078   1.277   1_545  A
O485       Co493   2.014   1_545  S
O486       Co929   1.897   1_455  S
O487        C500   1.255       .  A
O487       Co495   1.946       .  S
O488        C500   1.275       .  A
O488       Co493   2.040       .  S
O489       C1079   1.296   1_565  A
O489       Co492   2.101       .  S
O490        C497   1.250       .  A
O491      Co1074   1.987   1_456  S
Co493       O496   2.022       .  S
Co494       O921   1.897       .  S
Co494      O1071   1.987   1_554  S
Co495       O496   2.036       .  S
C497        C515   1.467       .  S
C498        C562   1.481       .  S
C498       O1065   1.277   1_465  A
C499        C572   1.478       .  S
C499       O1069   1.296   1_445  A
C500        C505   1.490       .  S
C501        C502   1.410       .  A
C501        C506   1.397       .  A
C501        H508   1.083       .  S
C502        C503   1.405       .  A
C503        C504   1.400       .  A
C503       Br510   1.919       .  S
C504        C505   1.414       .  A
C504        H509   1.083       .  S
C505        C506   1.412       .  A
C506       Br507   1.921       .  S
C511        C512   1.401       .  A
C511        C516   1.404       .  A
C511        H518   1.083       .  S
C512        C513   1.409       .  A
C513        C514   1.387       .  A
C513       Br520   1.922       .  S
C514        C515   1.395       .  A
C514        H519   1.081       .  S
C515        C516   1.415       .  A
C516       Br517   1.920       .  S
C521        C522   1.399       .  A
C521        C526   1.403       .  A
C521       H1108   1.084       .  S
C522        C523   1.406       .  A
C523        C524   1.397       .  A
C523       Br530   1.920       .  S
C524        C525   1.408       .  A
C524        H529   1.083       .  S
C525        C526   1.421       .  A
C526      Br1107   1.922       .  S
Br527      C1106   1.922   1_455  S
H528       C1101   1.084   1_455  S
C531        C532   1.405       .  A
C531        C536   1.397       .  A
C531        H538   1.084       .  S
C532        C533   1.415       .  A
C533        C534   1.408       .  A
C533      Br1120   1.918       .  S
C534        C535   1.407       .  A
C534       H1119   1.083       .  S
C535        C536   1.416       .  A
C536       Br537   1.922       .  S
H539       C1114   1.083       .  S
Br540      C1113   1.918   1_455  S
C541        C542   1.405       .  A
C541        C546   1.403       .  A
C541        H548   1.084   1_565  S
C542        C543   1.411       .  A
C543        C544   1.400       .  A
C543       Br550   1.921       .  S
C544        C545   1.407       .  A
C544        H549   1.084       .  S
C545        C546   1.415       .  A
C551        C552   1.400       .  A
C551        C556   1.405       .  A
C551        H558   1.083       .  S
C552        C553   1.408       .  A
C553        C554   1.401       .  A
C554        C555   1.409       .  A
C555        C556   1.421       .  A
C556       Br557   1.920       .  S
C561        C562   1.401       .  A
C561        C566   1.393       .  A
C561        H568   1.078   1_455  S
C563        C564   1.407       .  A
C563       Br570   1.918       .  S
C564        H569   1.081       .  S
C565        C566   1.415       .  A
C566       Br567   1.924       .  S
C571        C572   1.402   1_565  A
C571        C576   1.391       .  A
C571        H578   1.075       .  S
C573        C574   1.403       .  A
C573       Br580   1.920       .  S
C574        H579   1.083       .  S
C575        C576   1.404       .  A
C576       Br577   1.921       .  S
C581        C582   1.392       .  A
C581        C876   1.393       .  A
C581       C1010   1.471       .  S
C582        C583   1.400       .  A
C582        H587   1.083       .  S
C583        C874   1.411       .  A
C583       C1000   1.493       .  S
C584        C873   1.411       .  A
C584        C585   1.422       .  A
C584        H588   1.081       .  S
C585        C586   1.415       .  A
C585        C594   1.511       .  S
C586        C871   1.393       .  A
C586        H589   1.078       .  S
C590        C591   1.402       .  A
C590        C595   1.399       .  A
C590        C697   1.485       .  S
C591        C592   1.407       .  A
C591        H596   1.084       .  S
C592        C593   1.407       .  A
C592        C687   1.490       .  S
C593        C594   1.414       .  A
C593        H597   1.081       .  S
C594        C595   1.416       .  A
C595        H598   1.078       .  S
C599        C600   1.401       .  A
C599        C604   1.410       .  A
C599        C677   1.498       .  S
C600        C601   1.395       .  A
C600        H605   1.085       .  S
C601        C602   1.399       .  A
C601        C667   1.478       .  S
C602        C603   1.417       .  A
C602        H606   1.079       .  S
C603        C604   1.425       .  A
C603        C610   1.515       .  S
C604        H607   1.077       .  S
C608        C609   1.400       .  A
C608        C613   1.389       .  A
C608        C657   1.469       .  S
C609        C610   1.419       .  A
C609        H614   1.077       .  S
C610        C611   1.426       .  A
C611        C612   1.410       .  A
C611        H615   1.079       .  S
C612        C613   1.391       .  A
C612        C647   1.489       .  S
C613        H616   1.086       .  S
O617        C625   1.262       .  A
O617       Co927   1.877   1_545  S
O618        C626   1.259       .  A
O618       Co638   1.959       .  S
O619        C627   1.260       .  A
O619       Co639   2.001       .  S
O620        C628   1.278       .  A
O620       Co785   2.039   1_554  S
O621        C627   1.259       .  A
O621       Co928   1.974   1_545  S
O622        C628   1.268       .  A
O622       Co637   1.970       .  S
O623        C626   1.276       .  A
O623       Co640   2.033       .  S
O624        C625   1.304       .  A
O624       Co784   2.135       .  S
C625        C680   1.491       .  S
C626        C690   1.489       .  S
C627        C670   1.490       .  S
C628        C700   1.498       .  S
O629        C642   1.264       .  A
O629       Co637   2.007       .  S
O630       Co638   2.014       .  S
O631        C934   1.266       .  A
O632        C645   1.255       .  A
O632       Co640   1.946       .  S
O633        C645   1.275       .  A
O633       Co638   2.040       .  S
O634       Co637   2.102       .  S
O635        C642   1.249       .  A
O635       Co785   1.967   1_554  S
O636        C933   1.273       .  A
Co637       O907   1.877       .  S
Co637       O786   1.986   1_554  S
Co638       O911   1.974       .  S
Co638       O641   2.022       .  S
Co639       O769   2.135       .  S
Co639       O931   2.026   1_545  S
Co640       O765   2.039       .  S
Co640       O780   1.967       .  S
Co640       O641   2.036       .  S
O641       Co782   1.986       .  S
O641       Co929   2.026       .  S
C642        C660   1.467       .  S
C643        C707   1.481       .  S
C643        O926   1.273       .  A
C644        C717   1.478       .  S
C644        O921   1.265       .  A
C645        C650   1.490       .  S
C646        C647   1.410       .  A
C646        C651   1.397       .  A
C646        H653   1.083       .  S
C647        C648   1.405       .  A
C648        C649   1.400       .  A
C648       Br655   1.918   1_655  S
C649        C650   1.414       .  A
C649        H654   1.083       .  S
C650        C651   1.411       .  A
C651       Br652   1.921       .  S
C656        C657   1.401       .  A
C656        C661   1.404       .  A
C656        H663   1.083   1_655  S
C657        C658   1.409       .  A
C658        C659   1.387       .  A
C658       Br665   1.922       .  S
C659        C660   1.395       .  A
C659        H664   1.081       .  S
C660        C661   1.415       .  A
C661       Br662   1.920   1_655  S
C666        C667   1.400       .  A
C666        C671   1.403       .  A
C667        C668   1.406       .  A
C668        C669   1.396       .  A
C668       Br675   1.920       .  S
C669        C670   1.408       .  A
C669        H674   1.083       .  S
C670        C671   1.420       .  A
C676        C677   1.404       .  A
C676        C681   1.397       .  A
C676        H683   1.084       .  S
C677        C678   1.415       .  A
C678        C679   1.408       .  A
C679        C680   1.407       .  A
C680        C681   1.416       .  A
C681       Br682   1.922       .  S
C686        C687   1.405       .  A
C686        C691   1.403       .  A
C686        H693   1.084       .  S
C687        C688   1.411       .  A
C688        C689   1.400       .  A
C688       Br695   1.921       .  S
C689        C690   1.407       .  A
C689        H694   1.083       .  S
C690        C691   1.415       .  A
C691       Br982   1.921       .  S
Br692       C981   1.921   1_545  S
C696        C697   1.400       .  A
C696        C701   1.405       .  A
C696        H703   1.083       .  S
C697        C698   1.408       .  A
C698        C699   1.401       .  A
C698       Br995   1.920       .  S
C699        C700   1.409       .  A
C699        H994   1.083       .  S
C700        C701   1.421       .  A
C701       Br702   1.920       .  S
H704        C989   1.083   1_545  S
Br705       C988   1.920   1_545  S
C706        C707   1.401       .  A
C706        C711   1.393       .  A
C706        H713   1.078       .  S
C707        C998   1.411       .  A
C708        C997   1.411       .  A
C708        C709   1.407       .  A
C708       Br715   1.918   1_565  S
C709       C1000   1.409       .  A
C709        H714   1.081       .  S
C710        C999   1.409       .  A
C710        C711   1.415       .  A
C710        C873   1.494       .  S
C711       Br712   1.924       .  S
C716        C717   1.402       .  A
C716        C721   1.391       .  A
C716        H723   1.076       .  S
C717       C1008   1.416       .  A
C718       C1007   1.416       .  A
C718        C719   1.403       .  A
C718       Br725   1.920       .  S
C719       C1010   1.401   1_545  A
C719        H724   1.083       .  S
C720       C1009   1.401       .  A
C720        C721   1.404       .  A
C720        C871   1.470       .  S
C721       Br722   1.921       .  S
C726        C727   1.392       .  A
C726       C1021   1.393       .  A
C726       C1155   1.471       .  S
C727        C728   1.400       .  A
C727        H732   1.083       .  S
C728       C1019   1.411       .  A
C728       C1145   1.493       .  S
C729       C1018   1.411       .  A
C729        C730   1.422       .  A
C729        H733   1.081       .  S
C730        C731   1.415       .  A
C730        C739   1.511       .  S
C731       C1016   1.393       .  A
C731        H734   1.078       .  S
C735        C736   1.402       .  A
C735        C740   1.399       .  A
C735        C842   1.485       .  S
C736        C737   1.407       .  A
C736        H741   1.084       .  S
C737        C738   1.407       .  A
C737        C832   1.490       .  S
C738        C739   1.414       .  A
C738        H742   1.081       .  S
C739        C740   1.416       .  A
C740        H743   1.078       .  S
C744        C745   1.401       .  A
C744        C749   1.410       .  A
C744        C822   1.498       .  S
C745        C746   1.395       .  A
C745        H750   1.085       .  S
C746        C747   1.399       .  A
C746        C812   1.478       .  S
C747        C748   1.417       .  A
C747        H751   1.079       .  S
C748        C749   1.425       .  A
C748        C755   1.515       .  S
C749        H752   1.077       .  S
C753        C754   1.400       .  A
C753        C758   1.389       .  A
C753        C802   1.469       .  S
C754        C755   1.419       .  A
C754        H759   1.077       .  S
C755        C756   1.426       .  A
C756        C757   1.410       .  A
C756        H760   1.079       .  S
C757        C758   1.391       .  A
C757        C792   1.489       .  S
C758        H761   1.086       .  S
O762        C770   1.262       .  A
O762      Co1072   1.877   1_545  S
O763        C771   1.259       .  A
O763       Co783   1.959       .  S
O764        C772   1.260       .  A
O764       Co784   2.001   1_556  S
O765        C773   1.278       .  A
O766        C772   1.259       .  A
O766      Co1073   1.974   1_545  S
O767        C773   1.268       .  A
O767       Co782   1.970       .  S
O768        C771   1.276       .  A
O768       Co785   2.033       .  S
O769        C770   1.304       .  A
C770        C825   1.491       .  S
C771        C835   1.489       .  S
C772        C815   1.490       .  S
C773        C845   1.498       .  S
O774        C787   1.264       .  A
O774       Co782   2.007       .  S
O775       Co783   2.014       .  S
O776       C1079   1.266       .  A
O777        C790   1.255       .  A
O777       Co785   1.946       .  S
O778        C790   1.275       .  A
O778       Co783   2.040       .  S
O779       Co782   2.102       .  S
O780        C787   1.249       .  A
O781       C1078   1.273       .  A
Co782      O1052   1.877       .  S
Co783      O1056   1.974       .  S
Co783       O786   2.022       .  S
Co784      O1076   2.026   1_544  S
Co785       O786   2.036       .  S
O786      Co1074   2.026   1_556  S
C787        C805   1.467       .  S
C788        C852   1.481       .  S
C788       O1071   1.273       .  A
C789        C862   1.478       .  S
C789       O1066   1.265       .  A
C790        C795   1.490       .  S
C791        C792   1.410       .  A
C791        C796   1.397       .  A
C791        H798   1.083       .  S
C792        C793   1.405       .  A
C793        C794   1.400       .  A
C793       Br800   1.918   1_655  S
C794        C795   1.414       .  A
C794        H799   1.083       .  S
C795        C796   1.411       .  A
C796       Br797   1.921       .  S
C801        C802   1.401       .  A
C801        C806   1.404       .  A
C801        H808   1.083   1_655  S
C802        C803   1.409       .  A
C803        C804   1.387       .  A
C803       Br810   1.922       .  S
C804        C805   1.395       .  A
C804        H809   1.081       .  S
C805        C806   1.415       .  A
C806       Br807   1.920   1_655  S
C811        C812   1.400       .  A
C811        C816   1.403       .  A
C812        C813   1.406       .  A
C813        C814   1.396       .  A
C813       Br820   1.920       .  S
C814        C815   1.408       .  A
C814        H819   1.083       .  S
C815        C816   1.420       .  A
C821        C822   1.404       .  A
C821        C826   1.397       .  A
C821        H828   1.084       .  S
C822        C823   1.415       .  A
C823        C824   1.408       .  A
C824        C825   1.407       .  A
C825        C826   1.416       .  A
C826       Br827   1.922       .  S
C831        C832   1.405       .  A
C831        C836   1.403       .  A
C831        H838   1.084       .  S
C832        C833   1.411       .  A
C833        C834   1.400       .  A
C833       Br840   1.921       .  S
C834        C835   1.407       .  A
C834        H839   1.083       .  S
C835        C836   1.415       .  A
C836      Br1127   1.921       .  S
Br837      C1126   1.921   1_545  S
C841        C842   1.400       .  A
C841        C846   1.405       .  A
C841        H848   1.083       .  S
C842        C843   1.408       .  A
C843        C844   1.401       .  A
C843      Br1140   1.920       .  S
C844        C845   1.409       .  A
C844       H1139   1.083       .  S
C845        C846   1.421       .  A
C846       Br847   1.920       .  S
H849       C1134   1.083   1_545  S
Br850      C1133   1.920   1_545  S
C851        C852   1.401       .  A
C851        C856   1.393       .  A
C851        H858   1.078       .  S
C852       C1143   1.411       .  A
C853       C1142   1.411       .  A
C853        C854   1.407       .  A
C853       Br860   1.918   1_565  S
C854       C1145   1.409       .  A
C854        H859   1.081       .  S
C855       C1144   1.409       .  A
C855        C856   1.415       .  A
C855       C1018   1.494       .  S
C856       Br857   1.924       .  S
C861        C862   1.402       .  A
C861        C866   1.391       .  A
C861        H868   1.076       .  S
C862       C1153   1.416       .  A
C863       C1152   1.416       .  A
C863        C864   1.403       .  A
C863       Br870   1.920       .  S
C864       C1155   1.401   1_545  A
C864        H869   1.083       .  S
C865       C1154   1.401       .  A
C865        C866   1.404       .  A
C865       C1016   1.470       .  S
C866       Br867   1.921       .  S
C871        C872   1.391       .  A
C872        C873   1.400       .  A
C872        H877   1.083       .  S
C874        C875   1.422       .  A
C874        H878   1.081       .  S
C875        C876   1.415       .  A
C875        C884   1.511       .  S
C876        H879   1.078       .  S
C880        C881   1.402       .  A
C880        C885   1.399       .  A
C880        C987   1.485       .  S
C881        C882   1.407       .  A
C881        H886   1.084       .  S
C882        C883   1.407       .  A
C882        C977   1.490       .  S
C883        C884   1.414       .  A
C883        H887   1.080       .  S
C884        C885   1.416       .  A
C885        H888   1.078       .  S
C889        C890   1.402       .  A
C889        C894   1.411       .  A
C889        C967   1.498       .  S
C890        C891   1.395       .  A
C890        H895   1.085       .  S
C891        C892   1.399       .  A
C891        C957   1.477       .  S
C892        C893   1.417       .  A
C892        H896   1.079       .  S
C893        C894   1.425       .  A
C893        C900   1.515       .  S
C894        H897   1.077       .  S
C898        C899   1.400       .  A
C898        C903   1.389       .  A
C898        C947   1.469       .  S
C899        C900   1.419       .  A
C899        H904   1.077       .  S
C900        C901   1.426       .  A
C901        C902   1.410       .  A
C901        H905   1.079       .  S
C902        C903   1.391       .  A
C902        C937   1.490       .  S
C903        H906   1.086       .  S
O907        C915   1.262       .  A
O908        C916   1.259       .  A
O908       Co928   1.959       .  S
O909        C917   1.260       .  A
O909       Co929   2.000       .  S
O910        C918   1.278       .  A
O910      Co1075   2.038   1_554  S
O911        C917   1.259       .  A
O912        C918   1.268       .  A
O912       Co927   1.970       .  S
O913        C916   1.276       .  A
O913       Co930   2.033       .  S
O914        C915   1.304       .  A
O914      Co1074   2.135       .  S
C915        C970   1.491       .  S
C916        C980   1.489       .  S
C917        C960   1.490       .  S
C918        C990   1.498       .  S
O919        C932   1.264       .  A
O919       Co927   2.008       .  S
O920       Co928   2.014   1_545  S
O922        C935   1.255       .  A
O922       Co930   1.946       .  S
O923        C935   1.275       .  A
O923       Co928   2.040       .  S
O924       Co927   2.101       .  S
O925        C932   1.250       .  A
O925      Co1075   1.967   1_554  S
Co927      O1076   1.986   1_554  S
Co928       O931   2.022       .  S
Co929      O1059   2.135       .  S
Co930      O1055   2.038       .  S
Co930      O1070   1.967       .  S
Co930       O931   2.036       .  S
O931      Co1072   1.986       .  S
C932        C950   1.467       .  S
C933        C997   1.481       .  S
C934       C1007   1.479       .  S
C935        C940   1.490       .  S
C936        C937   1.410       .  A
C936        C941   1.397       .  A
C936        H943   1.083       .  S
C937        C938   1.405       .  A
C938        C939   1.400       .  A
C938       Br945   1.919   1_655  S
C939        C940   1.414       .  A
C939        H944   1.083       .  S
C940        C941   1.412       .  A
C941       Br942   1.921       .  S
C946        C947   1.401       .  A
C946        C951   1.404       .  A
C946        H953   1.083   1_655  S
C947        C948   1.409       .  A
C948        C949   1.387       .  A
C948       Br955   1.922       .  S
C949        C950   1.395       .  A
C949        H954   1.081       .  S
C950        C951   1.415       .  A
C951       Br952   1.920   1_655  S
C956        C957   1.399       .  A
C956        C961   1.403       .  A
C957        C958   1.406       .  A
C958        C959   1.397       .  A
C958       Br965   1.920       .  S
C959        C960   1.408       .  A
C959        H964   1.083       .  S
C960        C961   1.421       .  A
C966        C967   1.405       .  A
C966        C971   1.397       .  A
C966        H973   1.084       .  S
C967        C968   1.415       .  A
C968        C969   1.408       .  A
C969        C970   1.407       .  A
C970        C971   1.416       .  A
C971       Br972   1.922       .  S
C976        C977   1.405       .  A
C976        C981   1.403       .  A
C976        H983   1.084   1_565  S
C977        C978   1.411       .  A
C978        C979   1.400       .  A
C978       Br985   1.921       .  S
C979        C980   1.407       .  A
C979        H984   1.084       .  S
C980        C981   1.415       .  A
C986        C987   1.400       .  A
C986        C991   1.405       .  A
C986        H993   1.083       .  S
C987        C988   1.408       .  A
C988        C989   1.401       .  A
C989        C990   1.409       .  A
C990        C991   1.421       .  A
C991       Br992   1.920       .  S
C996        C997   1.401       .  A
C996       C1001   1.393       .  A
C996       H1003   1.078       .  S
C998        C999   1.407       .  A
C998      Br1005   1.918       .  S
C999       H1004   1.081       .  S
C1000      C1001   1.415       .  A
C1001     Br1002   1.924       .  S
C1006      C1007   1.402   1_565  A
C1006      C1011   1.391       .  A
C1006      H1013   1.075       .  S
C1008      C1009   1.403       .  A
C1008     Br1015   1.920       .  S
C1009      H1014   1.083       .  S
C1010      C1011   1.404       .  A
C1011     Br1012   1.921       .  S
C1016      C1017   1.391       .  A
C1017      C1018   1.400       .  A
C1017      H1022   1.083       .  S
C1019      C1020   1.422       .  A
C1019      H1023   1.081       .  S
C1020      C1021   1.415       .  A
C1020      C1029   1.511       .  S
C1021      H1024   1.078       .  S
C1025      C1026   1.402       .  A
C1025      C1030   1.399       .  A
C1025      C1132   1.485       .  S
C1026      C1027   1.407       .  A
C1026      H1031   1.084       .  S
C1027      C1028   1.407       .  A
C1027      C1122   1.490       .  S
C1028      C1029   1.414       .  A
C1028      H1032   1.080       .  S
C1029      C1030   1.416       .  A
C1030      H1033   1.078       .  S
C1034      C1035   1.402       .  A
C1034      C1039   1.411       .  A
C1034      C1112   1.498       .  S
C1035      C1036   1.395       .  A
C1035      H1040   1.085       .  S
C1036      C1037   1.399       .  A
C1036      C1102   1.477       .  S
C1037      C1038   1.417       .  A
C1037      H1041   1.079       .  S
C1038      C1039   1.425       .  A
C1038      C1045   1.515       .  S
C1039      H1042   1.077       .  S
C1043      C1044   1.400       .  A
C1043      C1048   1.389       .  A
C1043      C1092   1.469       .  S
C1044      C1045   1.419       .  A
C1044      H1049   1.077       .  S
C1045      C1046   1.426       .  A
C1046      C1047   1.410       .  A
C1046      H1050   1.079       .  S
C1047      C1048   1.391       .  A
C1047      C1082   1.490       .  S
C1048      H1051   1.086       .  S
O1052      C1060   1.262       .  A
O1053      C1061   1.259       .  A
O1053     Co1073   1.959       .  S
O1054      C1062   1.260       .  A
O1054     Co1074   2.000   1_556  S
O1055      C1063   1.278       .  A
O1056      C1062   1.259       .  A
O1057      C1063   1.268       .  A
O1057     Co1072   1.970       .  S
O1058      C1061   1.276       .  A
O1058     Co1075   2.033       .  S
O1059      C1060   1.304       .  A
C1060      C1115   1.491       .  S
C1061      C1125   1.489       .  S
C1062      C1105   1.490       .  S
C1063      C1135   1.498       .  S
O1064      C1077   1.264       .  A
O1064     Co1072   2.008       .  S
O1065     Co1073   2.014   1_545  S
O1067      C1080   1.255       .  A
O1067     Co1075   1.946       .  S
O1068      C1080   1.275       .  A
O1068     Co1073   2.040       .  S
O1069     Co1072   2.101       .  S
O1070      C1077   1.250       .  A
Co1073     O1076   2.022       .  S
Co1075     O1076   2.036       .  S
C1077      C1095   1.467       .  S
C1078      C1142   1.481       .  S
C1079      C1152   1.479       .  S
C1080      C1085   1.490       .  S
C1081      C1082   1.410       .  A
C1081      C1086   1.397       .  A
C1081      H1088   1.083       .  S
C1082      C1083   1.405       .  A
C1083      C1084   1.400       .  A
C1083     Br1090   1.919   1_655  S
C1084      C1085   1.414       .  A
C1084      H1089   1.083       .  S
C1085      C1086   1.412       .  A
C1086     Br1087   1.921       .  S
C1091      C1092   1.401       .  A
C1091      C1096   1.404       .  A
C1091      H1098   1.083   1_655  S
C1092      C1093   1.409       .  A
C1093      C1094   1.387       .  A
C1093     Br1100   1.922       .  S
C1094      C1095   1.395       .  A
C1094      H1099   1.081       .  S
C1095      C1096   1.415       .  A
C1096     Br1097   1.920   1_655  S
C1101      C1102   1.399       .  A
C1101      C1106   1.403       .  A
C1102      C1103   1.406       .  A
C1103      C1104   1.397       .  A
C1103     Br1110   1.920       .  S
C1104      C1105   1.408       .  A
C1104      H1109   1.083       .  S
C1105      C1106   1.421       .  A
C1111      C1112   1.405       .  A
C1111      C1116   1.397       .  A
C1111      H1118   1.084       .  S
C1112      C1113   1.415       .  A
C1113      C1114   1.408       .  A
C1114      C1115   1.407       .  A
C1115      C1116   1.416       .  A
C1116     Br1117   1.922       .  S
C1121      C1122   1.405       .  A
C1121      C1126   1.403       .  A
C1121      H1128   1.084   1_565  S
C1122      C1123   1.411       .  A
C1123      C1124   1.400       .  A
C1123     Br1130   1.921       .  S
C1124      C1125   1.407       .  A
C1124      H1129   1.084       .  S
C1125      C1126   1.415       .  A
C1131      C1132   1.400       .  A
C1131      C1136   1.405       .  A
C1131      H1138   1.083       .  S
C1132      C1133   1.408       .  A
C1133      C1134   1.401       .  A
C1134      C1135   1.409       .  A
C1135      C1136   1.421       .  A
C1136     Br1137   1.920       .  S
C1141      C1142   1.401       .  A
C1141      C1146   1.393       .  A
C1141      H1148   1.078       .  S
C1143      C1144   1.407       .  A
C1143     Br1150   1.918       .  S
C1144      H1149   1.081       .  S
C1145      C1146   1.415       .  A
C1146     Br1147   1.924       .  S
C1151      C1152   1.402   1_565  A
C1151      C1156   1.391       .  A
C1151      H1158   1.075       .  S
C1153      C1154   1.403       .  A
C1153     Br1160   1.920       .  S
C1154      H1159   1.083       .  S
C1155      C1156   1.404       .  A
C1156     Br1157   1.921       .  S
