geometry optimzed in LAMMPS
_audit_creation_date              2020-11-30 
_audit_creation_method            'lammps2cif' 
_symmetry_space_group_name_H-M    'P1' 
_symmetry_Int_Tables_number       1 
_symmetry_cell_setting            triclinic 
loop_ 
_symmetry_equiv_pos_as_xyz 
  x,y,z 
_cell_length_a                    33.92524385 
_cell_length_b                    34.1855265745245 
_cell_length_c                    43.63215534209582 
_cell_angle_alpha                 90.74711523146377 
_cell_angle_beta                  89.79319468247596 
_cell_angle_gamma                 92.61873048085018 
loop_ 
_atom_site_label 
_atom_site_type_symbol 
_atom_site_fract_x 
_atom_site_fract_y 
_atom_site_fract_z 
_atom_site_charge 
C1          C  0.32319736  0.96990542  0.25212928     0.03800
C2          C  0.29353433  0.97145191  0.22963181    -0.12400
C3          C  0.25353261  0.97360087  0.23802127     0.01300
C4          C  0.24357086  0.97529989  0.26918791    -0.10900
C5          C  0.27242319  0.97371792  0.29201203     0.03800
C6          C  0.31207295  0.97062833  0.28341183    -0.10300
H7          H  0.30185301  0.97135413  0.20566817     0.09400
H8          H  0.21278620  0.97645099  0.27575468     0.06900
H9          H  0.33389988  0.97010070  0.30136188     0.06700
C10         C  0.63423412  0.96492857  0.24735880     0.03800
C11         C  0.65319024  0.95851301  0.21889699    -0.12400
C12         C  0.69475638  0.95869786  0.21711292     0.01300
C13         C  0.71708397  0.96718472  0.24368835    -0.10900
C14         C  0.69869547  0.97383064  0.27198195     0.03800
C15         C  0.65750457  0.97211386  0.27359136    -0.10300
H16         H  0.63609894  0.95196649  0.19843721     0.09400
H17         H  0.74894493  0.96774391  0.24239384     0.06900
H18         H  0.64342187  0.97643589  0.29565313     0.06700
C19         C  0.95288285  0.30134226  0.25578361     0.03800
C20         C  0.95373360  0.28266893  0.22681275    -0.12400
C21         C  0.95527746  0.24175791  0.22423465     0.01300
C22         C  0.95582506  0.21937131  0.25110033    -0.10900
C23         C  0.95484491  0.23754326  0.28013420     0.03800
C24         C  0.95350793  0.27839714  0.28222708    -0.10300
H25         H  0.95265316  0.29960175  0.20608371     0.09400
H26         H  0.95922700  0.18809362  0.24962816     0.06900
H27         H  0.95334655  0.29243941  0.30465343     0.06700
C28         C  0.95834032  0.60794052  0.23029184     0.03800
C29         C  0.96054718  0.62923176  0.20300749    -0.12400
C30         C  0.95648600  0.66982511  0.20301964     0.01300
C31         C  0.95145435  0.68972216  0.23110729    -0.10900
C32         C  0.95029905  0.66914611  0.25889454     0.03800
C33         C  0.95312959  0.62825108  0.25823727    -0.10300
H34         H  0.96485850  0.61395775  0.18139425     0.09400
H35         H  0.94885818  0.72114746  0.23139465     0.06900
H36         H  0.95266801  0.61285468  0.27972435     0.06700
O37         O  0.96962466  0.99722858  0.04745035    -0.79500
O38         O  0.95681931  0.94056957  0.42127121    -0.79500
O39         O  0.96671970  0.02434468  0.47774709    -0.79500
O40         O  0.90136427  0.94756077  0.01611763    -0.79500
O41         O  0.00193566  0.00278020  0.43872454    -0.79600
O42         O  0.93727550  0.92533374  0.05273223    -0.79500
O43         O  0.90925752  0.95397513  0.45385808    -0.79500
O44         O  0.01010273  0.04450592  0.02958175    -0.79500
C45         C  0.98356992  0.03304438  0.04843254     1.10200
C46         C  0.92301779  0.95367272  0.42687909     1.10100
C47         C  0.97773161  0.02674958  0.44996751     1.10200
C48         C  0.90465504  0.93761546  0.04368916     1.10100
O49         O  0.00255301  0.88807234  0.02449561    -0.79500
O50         O  0.05770721  0.95097996  0.46764202    -0.79600
O51         O  0.04422551  0.97410321  0.03493036    -0.79500
O52         O  0.94377137  0.87828038  0.45065059    -0.79500
O53         O  0.00841527  0.88792193  0.45121383    -0.79500
O54         O  0.01329999  0.94101086  0.07198659    -0.79500
O55         O  0.94032182  0.87266257  0.01282428    -0.79500
O56         O  0.04977851  0.01148083  0.48112182    -0.79500
Co57       Co  0.98896458  0.94250209  0.03299735     1.51500
Co58       Co  0.00572630  0.94504285  0.44745070     1.51700
Co59       Co  0.00125317  0.99732702  0.50627885     1.51600
Co60       Co  0.92605517  0.91562544  0.48384211     1.51500
O61         O  0.97801046  0.94707430  0.48849984    -1.41400
C62         C  0.97334018  0.86363124  0.02424834     1.10100
C63         C  0.07170072  0.98567327  0.47014603     1.10200
C64         C  0.04450673  0.95797053  0.06164730     1.10200
C65         C  0.97809093  0.86730736  0.44360122     1.10100
C66         C  0.96026832  0.74610591  0.32493408     0.19300
C67         C  0.98979155  0.77473743  0.33227586    -0.18700
C68         C  0.98835784  0.79607453  0.35977510    -0.11000
C69         C  0.95698738  0.78956712  0.38055106     0.21600
C70         C  0.92728050  0.76105882  0.37317347    -0.20400
C71         C  0.92899153  0.73929087  0.34576674    -0.11200
C72         C  0.95232514  0.81518218  0.40807521    -0.15400
C73         C  0.98305850  0.83371084  0.42246073    -0.29200
C74         C  0.96216705  0.72570750  0.29465001    -0.03500
C75         C  0.94612744  0.68955476  0.28901316    -0.40000
H76         H  0.01387860  0.78095802  0.31647948     0.12700
H77         H  0.01103501  0.81879159  0.36401360     0.12400
H78         H  0.90237998  0.75607327  0.38843277     0.11800
H79         H  0.90511813  0.71820047  0.34051198     0.12000
H80         H  0.92246956  0.82083314  0.41543463     0.14800
H81         H  0.01299547  0.82709914  0.41604742     0.13600
H82         H  0.97955833  0.74022170  0.27683490     0.11200
H83         H  0.93211896  0.67320022  0.30755214     0.13300
C84         C  0.94078256  0.74302499  0.13748751     0.19300
C85         C  0.90892744  0.76539994  0.12933711    -0.18700
C86         C  0.90950725  0.78603718  0.10192362    -0.11000
C87         C  0.94232988  0.78551980  0.08226019     0.21600
C88         C  0.97417583  0.76270947  0.09009816    -0.20400
C89         C  0.97340802  0.74164112  0.11746959    -0.11200
C90         C  0.94257416  0.81092925  0.05488136    -0.15400
C91         C  0.97559875  0.82785436  0.04270001    -0.29200
C92         C  0.93949983  0.72301346  0.16756727    -0.03500
C93         C  0.95901417  0.69051419  0.17326286    -0.40000
H94         H  0.88351971  0.76709468  0.14434116     0.12700
H95         H  0.88464991  0.80349966  0.09652589     0.12400
H96         H  0.99974213  0.76124681  0.07530134     0.11800
H97         H  0.99884472  0.72528946  0.12324063     0.12000
H98         H  0.91415701  0.82101935  0.04768320     0.14800
H99         H  0.00438563  0.82047635  0.05105667     0.13600
H100        H  0.91997357  0.73427740  0.18504100     0.11200
H101        H  0.97538488  0.67691680  0.15486918     0.13300
C102        C  0.95200346  0.15396993  0.33879641     0.19300
C103        C  0.92309875  0.12775129  0.35096828    -0.18700
C104        C  0.93271778  0.10178290  0.37414420    -0.11000
C105        C  0.97173132  0.10098851  0.38480320     0.21600
C106        C  0.00047545  0.12721783  0.37266714    -0.20400
C107        C  0.99068833  0.15377002  0.35018841    -0.11200
C108        C  0.98440034  0.07042225  0.40588072    -0.15400
C109        C  0.96353981  0.05827272  0.43052259    -0.29200
C110        C  0.94260485  0.17868019  0.31230301    -0.03500
C111        C  0.95941889  0.21472540  0.30847588    -0.40000
H112        H  0.89322008  0.12699469  0.34220067     0.12700
H113        H  0.91022579  0.08115272  0.38263968     0.12400
H114        H  0.03083969  0.12664958  0.38024184     0.11800
H115        H  0.01385121  0.17283921  0.34071442     0.12000
H116        H  0.01308054  0.05848719  0.40148003     0.14800
H117        H  0.93639772  0.07211596  0.43676094     0.13600
H118        H  0.92172341  0.16675631  0.29539190     0.11200
H119        H  0.97722066  0.22812188  0.32679014     0.13300
C120        C  0.95363507  0.16614314  0.15689028     0.19300
C121        C  0.93148544  0.13140576  0.15047959    -0.18700
C122        C  0.93860079  0.10939617  0.12400472    -0.11000
C123        C  0.96882445  0.12124053  0.10336896     0.21600
C124        C  0.98996565  0.15684629  0.10922297    -0.20400
C125        C  0.98262786  0.17903554  0.13568203    -0.11200
C126        C  0.98084485  0.09663709  0.07663387    -0.15400
C127        C  0.96753619  0.05935294  0.07195319    -0.29200
C128        C  0.94749945  0.18610073  0.18693991    -0.03500
C129        C  0.95906869  0.22355378  0.19323644    -0.40000
H130        H  0.90886948  0.12086143  0.16631783     0.12700
H131        H  0.92047526  0.08296994  0.12042780     0.12400
H132        H  0.01324959  0.16691139  0.09379447     0.11800
H133        H  0.00089435  0.20529139  0.13992985     0.12000
H134        H  0.00353190  0.10877403  0.06139154     0.14800
H135        H  0.94557970  0.04588039  0.08697763     0.13500
H136        H  0.93222699  0.16905272  0.20453405     0.11200
H137        H  0.97100133  0.24199379  0.17506554     0.13300
C138        C  0.95609734  0.49625063  0.24733085     0.19300
C139        C  0.93269921  0.47154550  0.26615081    -0.18700
C140        C  0.93417635  0.43081480  0.26346096    -0.11000
C141        C  0.95970148  0.41378164  0.24210473     0.21600
C142        C  0.98334097  0.43849288  0.22345474    -0.20400
C143        C  0.98188341  0.47922054  0.22615904    -0.11200
C144        C  0.96179099  0.37059791  0.23794531    -0.15400
C145        C  0.95054402  0.34454292  0.25958782    -0.29200
C146        C  0.95286187  0.53942759  0.25066940    -0.03500
C147        C  0.96283275  0.56480499  0.22823674    -0.40000
H148        H  0.91262696  0.48380270  0.28265394     0.12700
H149        H  0.91461657  0.41298480  0.27772436     0.12400
H150        H  0.00330091  0.42623144  0.20686484     0.11800
H151        H  0.00140397  0.49705064  0.21186354     0.12000
H152        H  0.97484433  0.36028793  0.21678535     0.14800
H153        H  0.94089921  0.35512207  0.28178625     0.13600
H154        H  0.93957318  0.55003490  0.27162574     0.11200
H155        H  0.97301775  0.55342924  0.20643464     0.13300
C156        C  0.83635126  0.98812610  0.37896015     0.19300
C157        C  0.79538347  0.98537575  0.38358771    -0.18700
C158        C  0.76950599  0.98906222  0.35903677    -0.11000
C159        C  0.78424620  0.99561744  0.32923090     0.21600
C160        C  0.82516177  0.00112301  0.32508611    -0.20400
C161        C  0.85099669  0.99750484  0.34963371    -0.11200
C162        C  0.75857113  0.99544638  0.30165915    -0.15400
C163        C  0.72167165  0.97911877  0.30076025    -0.29200
C164        C  0.86266272  0.97977380  0.40496073    -0.03500
C165        C  0.89916416  0.96662270  0.40108167    -0.40000
H166        H  0.78333338  0.97909746  0.40611662     0.12700
H167        H  0.73820277  0.98632438  0.36363511     0.12400
H168        H  0.83731521  0.00708261  0.30254317     0.11800
H169        H  0.88231816  0.00170301  0.34539054     0.12000
H170        H  0.77165044  0.00704417  0.28074169     0.14800
H171        H  0.70773506  0.96800591  0.32145257     0.13600
H172        H  0.85036646  0.98135909  0.42796204     0.11200
H173        H  0.91143282  0.96310319  0.37828142     0.13300
C174        C  0.77550233  0.92615924  0.15986898     0.19300
C175        C  0.77353802  0.94910145  0.13341135    -0.18700
C176        C  0.80272482  0.94727081  0.11057453    -0.11000
C177        C  0.83456156  0.92242765  0.11369575     0.21600
C178        C  0.83547055  0.89860162  0.13961334    -0.20400
C179        C  0.80646787  0.90048750  0.16234515    -0.11200
C180        C  0.86848590  0.92154702  0.09171577    -0.15400
C181        C  0.87017489  0.93971895  0.06448951    -0.29200
C182        C  0.74900058  0.93080436  0.18691220    -0.03500
C183        C  0.71524979  0.95038531  0.18755338    -0.40000
H184        H  0.75058630  0.96971898  0.13077525     0.12700
H185        H  0.80070538  0.96644893  0.09123089     0.12400
H186        H  0.85935849  0.87903853  0.14272265     0.11800
H187        H  0.80892727  0.88251935  0.18245781     0.12000
H188        H  0.89347366  0.90468646  0.09829457     0.14800
H189        H  0.84527982  0.95533230  0.05630482     0.13600
H190        H  0.75869825  0.91795468  0.20809328     0.11200
H191        H  0.70248189  0.96057779  0.16652216     0.13300
C192        C  0.16394049  0.97982472  0.41866198     0.19300
C193        C  0.18608855  0.94908168  0.40710647    -0.18700
C194        C  0.21063430  0.95441131  0.38147275    -0.11000
C195        C  0.21344629  0.99072501  0.36668457     0.21600
C196        C  0.19311806  0.02205641  0.37922465    -0.20400
C197        C  0.16879109  0.01683432  0.40498715    -0.11200
C198        C  0.23203270  0.99529858  0.33591538    -0.15400
C199        C  0.26068734  0.97290017  0.32489027    -0.29200
C200        C  0.13204457  0.97032321  0.44142234    -0.03500
C201        C  0.11041596  0.99697071  0.45617929    -0.40000
H202        H  0.18277210  0.92020891  0.41693263     0.12700
H203        H  0.22517986  0.92933197  0.37213541     0.12400
H204        H  0.19458521  0.05024430  0.36816364     0.11800
H205        H  0.15205071  0.04128697  0.41268291     0.12000
H206        H  0.22040402  0.01733473  0.32113014     0.14800
H207        H  0.27540299  0.95320514  0.33993535     0.13600
H208        H  0.12354420  0.93952347  0.44389935     0.11200
H209        H  0.11867005  0.02789168  0.45526983     0.13300
C210        C  0.18635799  0.95620240  0.16661335     0.19300
C211        C  0.19101550  0.95608810  0.13461726    -0.18700
C212        C  0.15806122  0.95283301  0.11525962    -0.11000
C213        C  0.11963662  0.94924059  0.12760312     0.21600
C214        C  0.11516581  0.94802884  0.15955586    -0.20400
C215        C  0.14798208  0.95148552  0.17883952    -0.11200
C216        C  0.08348043  0.94592974  0.10824337    -0.15400
C217        C  0.08172758  0.95897137  0.07930864    -0.29200
C218        C  0.22189793  0.95932973  0.18670633    -0.03500
C219        C  0.22067533  0.97411189  0.21548374    -0.40000
H220        H  0.22024754  0.95875470  0.12457103     0.12700
H221        H  0.16293725  0.95254892  0.09075576     0.12400
H222        H  0.08604013  0.94456578  0.16971098     0.11800
H223        H  0.14308109  0.94961357  0.20329349     0.12000
H224        H  0.05651120  0.93426580  0.11894818     0.14800
H225        H  0.10767771  0.97260847  0.06857108     0.13600
H226        H  0.24924913  0.94864871  0.17759397     0.11200
H227        H  0.19321788  0.98546699  0.22384328     0.13300
C228        C  0.43779941  0.95887412  0.25069779     0.19300
C229        C  0.46446798  0.94215984  0.27069308    -0.18700
C230        C  0.50477666  0.94225891  0.26392086    -0.11000
C231        C  0.51982014  0.95967917  0.23697554     0.21600
C232        C  0.49318032  0.97564289  0.21655690    -0.20400
C233        C  0.45267802  0.97557812  0.22334877    -0.11200
C234        C  0.56298160  0.96148463  0.22974718    -0.15400
C235        C  0.59055117  0.96265895  0.25196549    -0.29200
C236        C  0.39532585  0.95897067  0.26007194    -0.03500
C237        C  0.36535491  0.96904767  0.24189437    -0.40000
H238        H  0.45405265  0.92882826  0.29184781     0.12700
H239        H  0.52388273  0.92829358  0.27976051     0.12400
H240        H  0.50388167  0.98904229  0.19551364     0.11800
H241        H  0.43364518  0.98925172  0.20735755     0.12000
H242        H  0.57185581  0.96396193  0.20589547     0.14800
H243        H  0.58054390  0.96338979  0.27563349     0.13600
H244        H  0.38870692  0.94925680  0.28315784     0.11200
H245        H  0.37137112  0.97624775  0.21817198     0.13300
C246        C  0.32312752  0.96952734  0.75200081     0.03800
C247        C  0.29343487  0.97122965  0.72954383    -0.12400
C248        C  0.25348825  0.97368722  0.73799026     0.01300
C249        C  0.24360855  0.97552890  0.76916807    -0.10900
C250        C  0.27249268  0.97374427  0.79195251     0.03800
C251        C  0.31208459  0.97035152  0.78329637    -0.10300
H252        H  0.30168036  0.97105280  0.70556348     0.09400
H253        H  0.21285721  0.97693082  0.77577084     0.06900
H254        H  0.33394946  0.96969732  0.80121145     0.06700
C255        C  0.63417570  0.96537404  0.74731584     0.03800
C256        C  0.65307681  0.95868190  0.71887838    -0.12400
C257        C  0.69462641  0.95873884  0.71706611     0.01300
C258        C  0.71702128  0.96734895  0.74358603    -0.10900
C259        C  0.69869904  0.97428298  0.77186576     0.03800
C260        C  0.65749933  0.97274033  0.77349849    -0.10300
H261        H  0.63595295  0.95199711  0.69845838     0.09400
H262        H  0.74887310  0.96775973  0.74225714     0.06900
H263        H  0.64345041  0.97726865  0.79554537     0.06700
C264        C  0.95327722  0.30157649  0.75565487     0.03800
C265        C  0.95424465  0.28285644  0.72670741    -0.12400
C266        C  0.95592013  0.24195196  0.72418600     0.01300
C267        C  0.95656359  0.21963460  0.75108099    -0.10900
C268        C  0.95549332  0.23786490  0.78009176     0.03800
C269        C  0.95397691  0.27870441  0.78213010    -0.10300
H270        H  0.95309861  0.29974812  0.70595896     0.09400
H271        H  0.96005887  0.18836803  0.74963986     0.06900
H272        H  0.95370727  0.29279312  0.80453724     0.06700
C273        C  0.95812247  0.60805460  0.73033682     0.03800
C274        C  0.96021746  0.62938122  0.70307551    -0.12400
C275        C  0.95614623  0.66997190  0.70314248     0.01300
C276        C  0.95124215  0.68982755  0.73126709    -0.10900
C277        C  0.95019391  0.66919278  0.75902865     0.03800
C278        C  0.95300802  0.62830111  0.75831512    -0.10300
H279        H  0.96445641  0.61413353  0.68144027     0.09400
H280        H  0.94867459  0.72125747  0.73161145     0.06900
H281        H  0.95265734  0.61284511  0.77977860     0.06700
O282        O  0.96935201  0.99701497  0.54759759    -0.79500
O283        O  0.95717474  0.94055799  0.92116747    -0.79500
O284        O  0.96689661  0.02447197  0.97760764    -0.79500
O285        O  0.90111116  0.94747017  0.51624258    -0.79500
O286        O  0.00212623  0.00291942  0.93858142    -0.79600
O287        O  0.93695159  0.92506810  0.55282147    -0.79500
O288        O  0.90956692  0.95394455  0.95371501    -0.79500
O289        O  0.00990886  0.04424289  0.52975499    -0.79500
C290        C  0.98335200  0.03281396  0.54859994     1.10200
C291        C  0.92334749  0.95362081  0.92674122     1.10100
C292        C  0.97791624  0.02688097  0.94983143     1.10200
C293        C  0.90434758  0.93738189  0.54378214     1.10100
O294        O  0.00218041  0.88784552  0.52454812    -0.79500
O295        O  0.05804578  0.95130832  0.96755004    -0.79600
O296        O  0.04395049  0.97378321  0.53505746    -0.79500
O297        O  0.94425883  0.87831571  0.95065377    -0.79500
O298        O  0.00889330  0.88811256  0.95120329    -0.79500
O299        O  0.01296312  0.94072369  0.57209803    -0.79500
O300        O  0.93994327  0.87251340  0.51281756    -0.79500
O301        O  0.04996511  0.01179679  0.98097355    -0.79500
Co302      Co  0.98863885  0.94227539  0.53310281     1.51500
Co303      Co  0.00606286  0.94520896  0.94736376     1.51700
Co304      Co  0.00148655  0.99755142  0.00614421     1.51600
Co305      Co  0.92641047  0.91569487  0.98377200     1.51500
O306        O  0.97831696  0.94724701  0.98840182    -1.41400
C307        C  0.97293993  0.86343516  0.52425322     1.10100
C308        C  0.07196060  0.98603260  0.97003789     1.10200
C309        C  0.04419732  0.95764511  0.56177342     1.10200
C310        C  0.97861356  0.86739468  0.94364741     1.10100
C311        C  0.96073620  0.74589029  0.82518975     0.19300
C312        C  0.99042876  0.77432747  0.83257687    -0.18700
C313        C  0.98907819  0.79566425  0.86008178    -0.11000
C314        C  0.95762682  0.78934392  0.88081724     0.21600
C315        C  0.92779552  0.76097682  0.87341713    -0.20400
C316        C  0.92941465  0.73921987  0.84600446    -0.11200
C317        C  0.95296296  0.81505412  0.90828610    -0.15400
C318        C  0.98366497  0.83370337  0.92261925    -0.29200
C319        C  0.96248674  0.72556542  0.79487010    -0.03500
C320        C  0.94618466  0.68953661  0.78918052    -0.40000
H321        H  0.01456599  0.78042179  0.81679924     0.12700
H322        H  0.01187161  0.81825843  0.86433579     0.12400
H323        H  0.90284202  0.75612696  0.88864781     0.11800
H324        H  0.90542312  0.71827748  0.84072184     0.12000
H325        H  0.92310020  0.82070513  0.91562802     0.14800
H326        H  0.01361992  0.82711880  0.91624084     0.13600
H327        H  0.97994729  0.74001671  0.77706152     0.11200
H328        H  0.93209777  0.67320599  0.80769897     0.13300
C329        C  0.94037780  0.74323977  0.63767062     0.19300
C330        C  0.90865840  0.76587857  0.62965937    -0.18700
C331        C  0.90917895  0.78644517  0.60221295    -0.11000
C332        C  0.94180996  0.78557786  0.58237740     0.21600
C333        C  0.97351051  0.76251134  0.59007683    -0.20400
C334        C  0.97280480  0.74152725  0.61748197    -0.11200
C335        C  0.94205573  0.81090188  0.55495985    -0.15400
C336        C  0.97511365  0.82765206  0.54269673    -0.29200
C337        C  0.93917592  0.72326796  0.66776789    -0.03500
C338        C  0.95856513  0.69067261  0.67339227    -0.40000
H339        H  0.88340744  0.76783232  0.64479477     0.12700
H340        H  0.88444280  0.80412187  0.59691996     0.12400
H341        H  0.99892022  0.76078893  0.57514222     0.11800
H342        H  0.99814942  0.72497928  0.62313413     0.12000
H343        H  0.91366420  0.82112192  0.54782677     0.14800
H344        H  0.00388619  0.82016451  0.55101456     0.13600
H345        H  0.91982642  0.73464929  0.68531400     0.11200
H346        H  0.97474609  0.67698763  0.65493589     0.13300
C347        C  0.95257615  0.15440509  0.83885251     0.19300
C348        C  0.92371853  0.12791853  0.85074623    -0.18700
C349        C  0.93325201  0.10193223  0.87392718    -0.11000
C350        C  0.97214459  0.10139902  0.88487742     0.21600
C351        C  0.00083478  0.12792893  0.87305357    -0.20400
C352        C  0.99112014  0.15449512  0.85056327    -0.11200
C353        C  0.98478505  0.07079174  0.90591914    -0.15400
C354        C  0.96375495  0.05842898  0.93040946    -0.29200
C355        C  0.94330784  0.17904663  0.81229044    -0.03500
C356        C  0.96003267  0.21512812  0.80847494    -0.40000
H357        H  0.89395505  0.12694411  0.84173703     0.12700
H358        H  0.91081724  0.08107676  0.88218824     0.12400
H359        H  0.03111206  0.12756989  0.88086649     0.11800
H360        H  0.01426144  0.17378083  0.84131670     0.12000
H361        H  0.01356044  0.05900670  0.90162956     0.14800
H362        H  0.93650866  0.07214152  0.93655796     0.13600
H363        H  0.92256863  0.16703381  0.79531039     0.11200
H364        H  0.97767200  0.22863467  0.82683572     0.13300
C365        C  0.95384833  0.16620768  0.65692298     0.19300
C366        C  0.93154492  0.13153925  0.65057003    -0.18700
C367        C  0.93850340  0.10946242  0.62409336    -0.11000
C368        C  0.96871388  0.12117317  0.60340528     0.21600
C369        C  0.98998483  0.15672216  0.60919223    -0.20400
C370        C  0.98281233  0.17897063  0.63564930    -0.11200
C371        C  0.98060051  0.09649112  0.57667571    -0.15400
C372        C  0.96737451  0.05915169  0.57213839    -0.29200
C373        C  0.94789446  0.18624290  0.68697011    -0.03500
C374        C  0.95964263  0.22366616  0.69321327    -0.40000
H375        H  0.90893608  0.12110136  0.66645313     0.12700
H376        H  0.92027869  0.08309452  0.62054181     0.12400
H377        H  0.01325559  0.16668709  0.59371671     0.11800
H378        H  0.00118757  0.20516735  0.63984266     0.12000
H379        H  0.00315552  0.10861943  0.56131980     0.14800
H380        H  0.94555651  0.04569110  0.58728509     0.13500
H381        H  0.93259689  0.16929300  0.70460999     0.11200
H382        H  0.97160452  0.24203689  0.67501147     0.13300
C383        C  0.95573723  0.49637150  0.74718770     0.19300
C384        C  0.93194502  0.47155507  0.76563457    -0.18700
C385        C  0.93359825  0.43084331  0.76292012    -0.11000
C386        C  0.95968532  0.41395583  0.74191996     0.21600
C387        C  0.98368975  0.43877571  0.72362890    -0.20400
C388        C  0.98206323  0.47948324  0.72636252    -0.11200
C389        C  0.96201219  0.37080340  0.73778699    -0.15400
C390        C  0.95066964  0.34474649  0.75939325    -0.29200
C391        C  0.95236062  0.53951873  0.75054418    -0.03500
C392        C  0.96270936  0.56495364  0.72824909    -0.40000
H393        H  0.91144918  0.48370949  0.78185995     0.12700
H394        H  0.91375655  0.41289899  0.77687690     0.12400
H395        H  0.00407864  0.42661543  0.70731843     0.11800
H396        H  0.00187800  0.49741511  0.71237572     0.12000
H397        H  0.97536006  0.36052742  0.71672838     0.14800
H398        H  0.94075733  0.35532305  0.78152171     0.13600
H399        H  0.93865236  0.55006916  0.77135430     0.11200
H400        H  0.97326222  0.55365539  0.70653050     0.13300
C401        C  0.83665449  0.98794696  0.87875871     0.19300
C402        C  0.79568899  0.98517276  0.88338863    -0.18700
C403        C  0.76979700  0.98890503  0.85885235    -0.11000
C404        C  0.78451171  0.99553683  0.82904613     0.21600
C405        C  0.82543518  0.00102260  0.82489795    -0.20400
C406        C  0.85128554  0.99735781  0.84943506    -0.11200
C407        C  0.75882136  0.99545136  0.80146993    -0.15400
C408        C  0.72172033  0.97959646  0.80063212    -0.29200
C409        C  0.86296970  0.97962077  0.90476821    -0.03500
C410        C  0.89949337  0.96651003  0.90091461    -0.40000
H411        H  0.78364852  0.97885430  0.90591291     0.12700
H412        H  0.73850630  0.98614210  0.86347965     0.12400
H413        H  0.83758361  0.00702663  0.80236137     0.11800
H414        H  0.88260688  0.00155885  0.84518924     0.12000
H415        H  0.77203324  0.00674954  0.78050470     0.14800
H416        H  0.70762489  0.96885274  0.82137267     0.13600
H417        H  0.85065978  0.98120822  0.92776362     0.11200
H418        H  0.91178316  0.96299601  0.87812182     0.13300
C419        C  0.77505495  0.92559843  0.65979918     0.19300
C420        C  0.77307550  0.94848571  0.63331664    -0.18700
C421        C  0.80218039  0.94652871  0.61043733    -0.11000
C422        C  0.83396548  0.92161791  0.61353774     0.21600
C423        C  0.83484112  0.89777837  0.63945233    -0.20400
C424        C  0.80591496  0.89979793  0.66223654    -0.11200
C425        C  0.86788337  0.92070996  0.59155211    -0.15400
C426        C  0.86983471  0.93938657  0.56454345    -0.29200
C427        C  0.74870001  0.93047416  0.68689553    -0.03500
C428        C  0.71500938  0.95014643  0.68751923    -0.40000
H429        H  0.75019462  0.96918167  0.63069668     0.12700
H430        H  0.80012615  0.96567339  0.59107900     0.12400
H431        H  0.85867144  0.87814213  0.64253714     0.11800
H432        H  0.80836767  0.88185386  0.68236379     0.12000
H433        H  0.89268563  0.90349637  0.59797274     0.14800
H434        H  0.84514165  0.95539374  0.55648996     0.13600
H435        H  0.75846000  0.91775289  0.70810819     0.11200
H436        H  0.70218468  0.96019805  0.66646435     0.13300
C437        C  0.16439119  0.98023960  0.91875416     0.19300
C438        C  0.18641716  0.94943596  0.90715239    -0.18700
C439        C  0.21092816  0.95471323  0.88149757    -0.11000
C440        C  0.21385123  0.99104380  0.86674060     0.21600
C441        C  0.19369467  0.02244740  0.87934981    -0.20400
C442        C  0.16938988  0.01727327  0.90513293    -0.11200
C443        C  0.23236659  0.99556887  0.83594080    -0.15400
C444        C  0.26085091  0.97300927  0.82485013    -0.29200
C445        C  0.13246915  0.97076738  0.94150270    -0.03500
C446        C  0.11068378  0.99740442  0.95611672    -0.40000
H447        H  0.18300652  0.92054957  0.91694500     0.12700
H448        H  0.22534358  0.92958232  0.87211754     0.12400
H449        H  0.19526764  0.05065889  0.86832400     0.11800
H450        H  0.15278924  0.04179239  0.91288495     0.12000
H451        H  0.22081117  0.01768219  0.82119028     0.14800
H452        H  0.27550128  0.95322666  0.83986275     0.13600
H453        H  0.12405857  0.93996116  0.94407027     0.11200
H454        H  0.11881191  0.02834563  0.95512249     0.13300
C455        C  0.18596690  0.95612090  0.66680838     0.19300
C456        C  0.19060744  0.95499109  0.63481327    -0.18700
C457        C  0.15761980  0.95180283  0.61548381    -0.11000
C458        C  0.11917511  0.94928477  0.62786181     0.21600
C459        C  0.11468676  0.94911093  0.65983126    -0.20400
C460        C  0.14753649  0.95251332  0.67908390    -0.11200
C461        C  0.08300947  0.94599163  0.60851987    -0.15400
C462        C  0.08140932  0.95857272  0.57944880    -0.29200
C463        C  0.22154739  0.95907545  0.68687125    -0.03500
C464        C  0.22062994  0.97443239  0.71547914    -0.40000
H465        H  0.21985908  0.95678737  0.62474119     0.12700
H466        H  0.16245618  0.95070206  0.59098443     0.12400
H467        H  0.08552270  0.94649278  0.67001981     0.11800
H468        H  0.14259211  0.95144061  0.70356313     0.12000
H469        H  0.05592621  0.93480847  0.61933973     0.14800
H470        H  0.10749367  0.97182066  0.56861951     0.13600
H471        H  0.24868315  0.94772162  0.67790528     0.11200
H472        H  0.19342302  0.98641041  0.72375245     0.13300
C473        C  0.43770079  0.95833938  0.75051502     0.19300
C474        C  0.46444350  0.94188544  0.77059650    -0.18700
C475        C  0.50478366  0.94224062  0.76389313    -0.11000
C476        C  0.51976791  0.95962688  0.73691838     0.21600
C477        C  0.49306185  0.97530166  0.71640803    -0.20400
C478        C  0.45253782  0.97500229  0.72313685    -0.11200
C479        C  0.56292963  0.96162281  0.72971897    -0.15400
C480        C  0.59049385  0.96311516  0.75194516    -0.29200
C481        C  0.39520153  0.95826951  0.75984726    -0.03500
C482        C  0.36525178  0.96853404  0.74172095    -0.40000
H483        H  0.45406786  0.92859021  0.79177501     0.12700
H484        H  0.52396716  0.92849738  0.77980348     0.12400
H485        H  0.50372210  0.98865388  0.69533512     0.11800
H486        H  0.43346008  0.98845791  0.70706154     0.12000
H487        H  0.57179399  0.96391257  0.70585487     0.14800
H488        H  0.58047990  0.96402764  0.77560810     0.13600
H489        H  0.38855297  0.94839664  0.78288689     0.11200
H490        H  0.37126008  0.97590897  0.71803537     0.13300
loop_ 
_geom_bond_atom_site_label_1 
_geom_bond_atom_site_label_2 
_geom_bond_distance 
_geom_bond_site_symmetry_2 
_ccdc_geom_bond_type 
C1            C2   1.412       .  A
C1            C6   1.415       .  A
C1          C237   1.498       .  S
C2            C3   1.409       .  A
C2            H7   1.082       .  S
C3            C4   1.401       .  A
C3          C219   1.490       .  S
C4            C5   1.402       .  A
C4            H8   1.084       .  S
C5            C6   1.403       .  A
C5          C199   1.488       .  S
C6            H9   1.081       .  S
C10          C11   1.416       .  A
C10          C15   1.405       .  A
C10         C235   1.493       .  S
C11          C12   1.412       .  A
C11          H16   1.082       .  S
C12          C13   1.407       .  A
C12         C183   1.493       .  S
C13          C14   1.402       .  A
C13          H17   1.081       .  S
C14          C15   1.398       .  A
C14         C163   1.485       .  S
C15          H18   1.084       .  S
C19          C20   1.409       .  A
C19          C24   1.404       .  A
C19         C145   1.490       .  S
C20          C21   1.405       .  A
C20          H25   1.082       .  S
C21          C22   1.409       .  A
C21         C129   1.489       .  S
C22          C23   1.405       .  A
C22          H26   1.082       .  S
C23          C24   1.401       .  A
C23         C111   1.483       .  S
C24          H27   1.084       .  S
C28          C29   1.403       .  A
C28          C33   1.410       .  A
C28         C147   1.491       .  S
C29          C30   1.401       .  A
C29          H34   1.085       .  S
C30          C31   1.408       .  A
C30          C93   1.487       .  S
C31          C32   1.409       .  A
C31          H35   1.082       .  S
C32          C33   1.406       .  A
C32          C75   1.489       .  S
C33          H36   1.081       .  S
O37          C45   1.293   1_565  A
O37         Co57   2.099       .  S
O38          C46   1.272       .  A
O38         Co58   2.017   1_655  S
O39          C47   1.270       .  A
O39         Co59   1.979   1_645  S
O40          C48   1.261       .  A
O40        Co305   1.984   1_554  S
O41          C47   1.278   1_455  A
O41         Co58   2.025   1_545  S
O42          C48   1.268       .  A
O42         Co57   2.017       .  S
O43          C46   1.265       .  A
O43         Co60   1.968       .  S
O44          C45   1.269   1_455  A
O44        Co304   1.904   1_545  S
C45         C127   1.475       .  S
C46         C165   1.473       .  S
C47         C109   1.479       .  S
C48         C181   1.482       .  S
O49          C62   1.267   1_455  A
O49         Co57   1.968   1_455  S
O50          C63   1.261       .  A
O50         Co58   1.975       .  S
O51          C64   1.296       .  A
O51        Co304   2.114       .  S
O52          C65   1.275       .  A
O52         Co60   2.026       .  S
O53          C65   1.263   1_455  A
O53         Co58   1.968       .  S
O54          C64   1.268       .  A
O54         Co57   1.896   1_455  S
O55          C62   1.280       .  A
O55        Co305   2.027   1_554  S
O56          C63   1.268   1_545  A
O56         Co59   2.019   1_545  S
Co57        O306   1.990   1_554  S
Co58         O61   2.022   1_455  S
Co59        O289   1.904   1_565  S
Co59        O296   2.114       .  S
Co59         O61   2.005   1_455  S
Co60        O285   1.984       .  S
Co60        O300   2.027       .  S
Co60         O61   2.032       .  S
O61        Co302   1.991       .  S
C62          C91   1.478       .  S
C63         C201   1.483       .  S
C64         C217   1.480       .  S
C65          C73   1.479       .  S
C66          C67   1.403       .  A
C66          C71   1.408       .  A
C66          C74   1.489       .  S
C67          C68   1.398       .  A
C67          H76   1.083   1_655  S
C68          C69   1.407       .  A
C68          H77   1.083   1_655  S
C69          C70   1.405       .  A
C69          C72   1.489       .  S
C70          C71   1.403       .  A
C70          H78   1.082       .  S
C71          H79   1.083       .  S
C72          H80   1.086       .  S
C72          C73   1.348       .  D
C73          H81   1.085   1_655  S
C74          H82   1.086       .  S
C74          C75   1.347       .  D
C75          H83   1.085       .  S
C84          C85   1.402       .  A
C84          C89   1.410       .  A
C84          C92   1.488       .  S
C85          C86   1.396       .  A
C85          H94   1.084       .  S
C86          C87   1.404       .  A
C86          H95   1.084       .  S
C87          C88   1.407       .  A
C87          C90   1.486       .  S
C88          C89   1.402       .  A
C88          H96   1.082       .  S
C89          H97   1.082       .  S
C90          H98   1.087       .  S
C90          C91   1.348       .  D
C91          H99   1.085   1_655  S
C92         H100   1.086       .  S
C92          C93   1.345       .  D
C93         H101   1.086       .  S
C102        C103   1.405       .  A
C102        C107   1.405       .  A
C102        C110   1.485       .  S
C103        C104   1.403       .  A
C103        H112   1.084       .  S
C104        C105   1.406       .  A
C104        H113   1.083       .  S
C105        C106   1.401   1_655  A
C105        C108   1.480       .  S
C106        C107   1.396   1_455  A
C106        H114   1.084       .  S
C107        H115   1.082   1_655  S
C108        H116   1.088   1_655  S
C108        C109   1.345       .  D
C109        H117   1.087       .  S
C110        H118   1.087       .  S
C110        C111   1.346       .  D
C111        H119   1.087       .  S
C120        C121   1.402       .  A
C120        C125   1.408       .  A
C120        C128   1.488       .  S
C121        C122   1.397       .  A
C121        H130   1.083       .  S
C122        C123   1.411       .  A
C122        H131   1.079       .  S
C123        C124   1.405       .  A
C123        C126   1.496       .  S
C124        C125   1.401       .  A
C124        H132   1.083   1_655  S
C125        H133   1.082   1_655  S
C126        H134   1.087   1_655  S
C126        C127   1.346       .  D
C127        H135   1.082       .  S
C128        H136   1.086       .  S
C128        C129   1.347       .  D
C129        H137   1.085       .  S
C138        C139   1.403       .  A
C138        C143   1.409       .  A
C138        C146   1.490       .  S
C139        C140   1.399       .  A
C139        H148   1.083       .  S
C140        C141   1.408       .  A
C140        H149   1.081       .  S
C141        C142   1.404       .  A
C141        C144   1.490       .  S
C142        C143   1.399       .  A
C142        H150   1.083   1_655  S
C143        H151   1.081   1_655  S
C144        H152   1.084       .  S
C144        C145   1.349       .  D
C145        H153   1.084       .  S
C146        H154   1.084       .  S
C146        C147   1.348       .  D
C147        H155   1.084       .  S
C156        C157   1.403       .  A
C156        C161   1.407       .  A
C156        C164   1.485       .  S
C157        C158   1.398       .  A
C157        H166   1.084       .  S
C158        C159   1.409       .  A
C158        H167   1.080       .  S
C159        C160   1.404   1_565  A
C159        C162   1.488       .  S
C160        C161   1.397   1_545  A
C160        H168   1.083       .  S
C161        H169   1.081   1_565  S
C162        H170   1.085   1_565  S
C162        C163   1.348       .  D
C163        H171   1.083       .  S
C164        H172   1.087       .  S
C164        C165   1.346       .  D
C165        H173   1.084       .  S
C174        C175   1.408       .  A
C174        C179   1.405       .  A
C174        C182   1.492       .  S
C175        C176   1.405       .  A
C175        H184   1.081       .  S
C176        C177   1.412       .  A
C176        H185   1.080       .  S
C177        C178   1.403       .  A
C177        C180   1.497       .  S
C178        C179   1.398       .  A
C178        H186   1.084       .  S
C179        H187   1.083       .  S
C180        H188   1.088       .  S
C180        C181   1.348       .  D
C181        H189   1.084       .  S
C182        H190   1.087       .  S
C182        C183   1.352       .  D
C183        H191   1.084       .  S
C192        C193   1.407       .  A
C192        C197   1.408   1_565  A
C192        C200   1.494       .  S
C193        C194   1.401       .  A
C193        H202   1.082       .  S
C194        C195   1.406       .  A
C194        H203   1.083       .  S
C195        C196   1.404   1_565  A
C195        C198   1.488       .  S
C196        C197   1.401       .  A
C196        H204   1.082       .  S
C197        H205   1.081       .  S
C198        H206   1.087   1_565  S
C198        C199   1.348       .  D
C199        H207   1.085       .  S
C200        H208   1.086       .  S
C200        C201   1.351       .  D
C201        H209   1.082   1_565  S
C210        C211   1.404       .  A
C210        C215   1.408       .  A
C210        C218   1.492       .  S
C211        C212   1.403       .  A
C211        H220   1.083       .  S
C212        C213   1.409       .  A
C212        H221   1.081       .  S
C213        C214   1.403       .  A
C213        C216   1.491       .  S
C214        C215   1.398       .  A
C214        H222   1.084       .  S
C215        H223   1.082       .  S
C216        H224   1.088       .  S
C216        C217   1.347       .  D
C217        H225   1.085       .  S
C218        H226   1.085       .  S
C218        C219   1.349       .  D
C219        H227   1.086       .  S
C228        C229   1.404       .  A
C228        C233   1.411       .  A
C228        C236   1.497       .  S
C229        C230   1.398       .  A
C229        H238   1.086       .  S
C230        C231   1.408       .  A
C230        H239   1.080       .  S
C231        C232   1.404       .  A
C231        C234   1.495       .  S
C232        C233   1.405       .  A
C232        H240   1.085       .  S
C233        H241   1.078       .  S
C234        H242   1.086       .  S
C234        C235   1.348       .  D
C235        H243   1.086       .  S
C236        H244   1.084       .  S
C236        C237   1.351       .  D
C237        H245   1.084       .  S
C246        C247   1.411       .  A
C246        C251   1.415       .  A
C246        C482   1.498       .  S
C247        C248   1.409       .  A
C247        H252   1.082       .  S
C248        C249   1.401       .  A
C248        C464   1.490       .  S
C249        C250   1.402       .  A
C249        H253   1.084       .  S
C250        C251   1.403       .  A
C250        C444   1.488       .  S
C251        H254   1.081       .  S
C255        C256   1.415       .  A
C255        C260   1.405       .  A
C255        C480   1.494       .  S
C256        C257   1.411       .  A
C256        H261   1.082       .  S
C257        C258   1.407       .  A
C257        C428   1.493       .  S
C258        C259   1.402       .  A
C258        H262   1.081       .  S
C259        C260   1.398       .  A
C259        C408   1.485       .  S
C260        H263   1.084       .  S
C264        C265   1.409       .  A
C264        C269   1.404       .  A
C264        C390   1.489       .  S
C265        C266   1.405       .  A
C265        H270   1.082       .  S
C266        C267   1.409       .  A
C266        C374   1.489       .  S
C267        C268   1.405       .  A
C267        H271   1.082       .  S
C268        C269   1.401       .  A
C268        C356   1.483       .  S
C269        H272   1.084       .  S
C273        C274   1.403       .  A
C273        C278   1.410       .  A
C273        C392   1.490       .  S
C274        C275   1.401       .  A
C274        H279   1.085       .  S
C275        C276   1.408       .  A
C275        C338   1.487       .  S
C276        C277   1.409       .  A
C276        H280   1.082       .  S
C277        C278   1.405       .  A
C277        C320   1.489       .  S
C278        H281   1.081       .  S
O282        C290   1.293   1_565  A
O282       Co302   2.100       .  S
O283        C291   1.272       .  A
O283       Co303   2.017   1_655  S
O284        C292   1.270       .  A
O284       Co304   1.978   1_646  S
O285        C293   1.261       .  A
O286        C292   1.279   1_455  A
O286       Co303   2.025   1_545  S
O287        C293   1.267       .  A
O287       Co302   2.017       .  S
O288        C291   1.265       .  A
O288       Co305   1.968       .  S
O289        C290   1.269   1_455  A
C290        C372   1.475       .  S
C291        C410   1.473       .  S
C292        C354   1.479       .  S
C293        C426   1.481       .  S
O294        C307   1.267   1_455  A
O294       Co302   1.968   1_455  S
O295        C308   1.261       .  A
O295       Co303   1.975       .  S
O296        C309   1.296       .  A
O297        C310   1.275       .  A
O297       Co305   2.026       .  S
O298        C310   1.263   1_455  A
O298       Co303   1.968       .  S
O299        C309   1.268       .  A
O299       Co302   1.896   1_455  S
O300        C307   1.280       .  A
O301        C308   1.268   1_545  A
O301       Co304   2.019   1_546  S
Co303       O306   2.022   1_455  S
Co304       O306   2.005   1_454  S
Co305       O306   2.032       .  S
C307        C336   1.478       .  S
C308        C446   1.483       .  S
C309        C462   1.481       .  S
C310        C318   1.479       .  S
C311        C312   1.403       .  A
C311        C316   1.408       .  A
C311        C319   1.488       .  S
C312        C313   1.398       .  A
C312        H321   1.083   1_655  S
C313        C314   1.407       .  A
C313        H322   1.082   1_655  S
C314        C315   1.405       .  A
C314        C317   1.489       .  S
C315        C316   1.402       .  A
C315        H323   1.082       .  S
C316        H324   1.083       .  S
C317        H325   1.086       .  S
C317        C318   1.348       .  D
C318        H326   1.085   1_655  S
C319        H327   1.086       .  S
C319        C320   1.347       .  D
C320        H328   1.085       .  S
C329        C330   1.402       .  A
C329        C334   1.410       .  A
C329        C337   1.488       .  S
C330        C331   1.396       .  A
C330        H339   1.084       .  S
C331        C332   1.404       .  A
C331        H340   1.084       .  S
C332        C333   1.407       .  A
C332        C335   1.486       .  S
C333        C334   1.402       .  A
C333        H341   1.082       .  S
C334        H342   1.082       .  S
C335        H343   1.087       .  S
C335        C336   1.348       .  D
C336        H344   1.085   1_655  S
C337        H345   1.086       .  S
C337        C338   1.345       .  D
C338        H346   1.086       .  S
C347        C348   1.405       .  A
C347        C352   1.405       .  A
C347        C355   1.485       .  S
C348        C349   1.403       .  A
C348        H357   1.084       .  S
C349        C350   1.406       .  A
C349        H358   1.083       .  S
C350        C351   1.401   1_655  A
C350        C353   1.480       .  S
C351        C352   1.396   1_455  A
C351        H359   1.084       .  S
C352        H360   1.082   1_655  S
C353        H361   1.088   1_655  S
C353        C354   1.345       .  D
C354        H362   1.087       .  S
C355        H363   1.087       .  S
C355        C356   1.346       .  D
C356        H364   1.087       .  S
C365        C366   1.402       .  A
C365        C370   1.408       .  A
C365        C373   1.489       .  S
C366        C367   1.397       .  A
C366        H375   1.083       .  S
C367        C368   1.411       .  A
C367        H376   1.079       .  S
C368        C369   1.405       .  A
C368        C371   1.496       .  S
C369        C370   1.401       .  A
C369        H377   1.083   1_655  S
C370        H378   1.081   1_655  S
C371        H379   1.087   1_655  S
C371        C372   1.346       .  D
C372        H380   1.082       .  S
C373        H381   1.086       .  S
C373        C374   1.347       .  D
C374        H382   1.085       .  S
C383        C384   1.403       .  A
C383        C388   1.409       .  A
C383        C391   1.490       .  S
C384        C385   1.399       .  A
C384        H393   1.083       .  S
C385        C386   1.408       .  A
C385        H394   1.081       .  S
C386        C387   1.404       .  A
C386        C389   1.489       .  S
C387        C388   1.399       .  A
C387        H395   1.083   1_655  S
C388        H396   1.081   1_655  S
C389        H397   1.084       .  S
C389        C390   1.348       .  D
C390        H398   1.084       .  S
C391        H399   1.084       .  S
C391        C392   1.348       .  D
C392        H400   1.084       .  S
C401        C402   1.403       .  A
C401        C406   1.407       .  A
C401        C409   1.485       .  S
C402        C403   1.398       .  A
C402        H411   1.083       .  S
C403        C404   1.409       .  A
C403        H412   1.080       .  S
C404        C405   1.404   1_565  A
C404        C407   1.488       .  S
C405        C406   1.397   1_545  A
C405        H413   1.083       .  S
C406        H414   1.081   1_565  S
C407        H415   1.085   1_565  S
C407        C408   1.348       .  D
C408        H416   1.083       .  S
C409        H417   1.087       .  S
C409        C410   1.346       .  D
C410        H418   1.084       .  S
C419        C420   1.407       .  A
C419        C424   1.405       .  A
C419        C427   1.492       .  S
C420        C421   1.405       .  A
C420        H429   1.081       .  S
C421        C422   1.412       .  A
C421        H430   1.080       .  S
C422        C423   1.404       .  A
C422        C425   1.497       .  S
C423        C424   1.398       .  A
C423        H431   1.084       .  S
C424        H432   1.083       .  S
C425        H433   1.088       .  S
C425        C426   1.348       .  D
C426        H434   1.083       .  S
C427        H435   1.087       .  S
C427        C428   1.352       .  D
C428        H436   1.084       .  S
C437        C438   1.407       .  A
C437        C442   1.409   1_565  A
C437        C445   1.494       .  S
C438        C439   1.401       .  A
C438        H447   1.082       .  S
C439        C440   1.406       .  A
C439        H448   1.083       .  S
C440        C441   1.404   1_565  A
C440        C443   1.488       .  S
C441        C442   1.401       .  A
C441        H449   1.082       .  S
C442        H450   1.081       .  S
C443        H451   1.087   1_565  S
C443        C444   1.348       .  D
C444        H452   1.085       .  S
C445        H453   1.086       .  S
C445        C446   1.351       .  D
C446        H454   1.082   1_565  S
C455        C456   1.405       .  A
C455        C460   1.408       .  A
C455        C463   1.493       .  S
C456        C457   1.403       .  A
C456        H465   1.083       .  S
C457        C458   1.409       .  A
C457        H466   1.081       .  S
C458        C459   1.403       .  A
C458        C461   1.491       .  S
C459        C460   1.398       .  A
C459        H467   1.084       .  S
C460        H468   1.081       .  S
C461        H469   1.088       .  S
C461        C462   1.347       .  D
C462        H470   1.085       .  S
C463        H471   1.085       .  S
C463        C464   1.349       .  D
C464        H472   1.085       .  S
C473        C474   1.404       .  A
C473        C478   1.411       .  A
C473        C481   1.497       .  S
C474        C475   1.398       .  A
C474        H483   1.086       .  S
C475        C476   1.408       .  A
C475        H484   1.080       .  S
C476        C477   1.404       .  A
C476        C479   1.495       .  S
C477        C478   1.404       .  A
C477        H485   1.085       .  S
C478        H486   1.078       .  S
C479        H487   1.086       .  S
C479        C480   1.348       .  D
C480        H488   1.086       .  S
C481        H489   1.084       .  S
C481        C482   1.352       .  D
C482        H490   1.083       .  S
