geometry optimzed in LAMMPS
_audit_creation_date              2020-11-30 
_audit_creation_method            'lammps2cif' 
_symmetry_space_group_name_H-M    'P1' 
_symmetry_Int_Tables_number       1 
_symmetry_cell_setting            triclinic 
loop_ 
_symmetry_equiv_pos_as_xyz 
  x,y,z 
_cell_length_a                    22.99878404 
_cell_length_b                    23.10180665470022 
_cell_length_c                    27.028918529336014 
_cell_angle_alpha                 90.03123730563661 
_cell_angle_beta                  90.02547544862497 
_cell_angle_gamma                 121.47625849729104 
loop_ 
_atom_site_label 
_atom_site_type_symbol 
_atom_site_fract_x 
_atom_site_fract_y 
_atom_site_fract_z 
_atom_site_charge 
C1          C  0.17377594  0.05765135  0.34432372     0.03600
C2          C  0.17763745  0.12185495  0.34599680     0.03500
C3          C  0.18576983  0.15378400  0.39114284    -0.17000
C4          C  0.19053551  0.12631696  0.43634776     0.03600
C5          C  0.18437358  0.06036880  0.43558943     0.03500
C6          C  0.17419857  0.02763244  0.38924632    -0.17000
H7          H  0.16168651  0.47405850  0.39220635     0.05600
H8          H  0.18722163  0.20147893  0.39079070     0.05600
C9          C  0.17700524  0.11849230  0.11888706     0.03600
C10         C  0.17061401  0.05319115  0.11658691     0.03500
C11         C  0.16977561  0.02488268  0.07111029    -0.17000
C12         C  0.18194808  0.06002532  0.02635113     0.03600
C13         C  0.18840107  0.12608981  0.02752723     0.03500
C14         C  0.18429031  0.15227772  0.07412344    -0.17000
H15         H  0.18795692  0.20093912  0.07572912     0.05600
H16         H  0.16941738  0.47909314  0.07564380     0.05600
O17         O  0.15455505  0.46105603  0.17052825    -0.71600
O18         O  0.03833314  0.34556957  0.29198780    -0.72600
O19         O  0.02504845  0.33671288  0.18019264    -0.61200
O20         O  0.16373637  0.47420796  0.28250468    -0.69700
O21         O  0.12557203  0.02825012  0.26451755    -0.69200
O22         O  0.50766894  0.42083981  0.16778906    -0.60500
O23         O  0.47137970  0.37791433  0.26525190    -0.73000
O24         O  0.08008051  0.99021185  0.16734427    -0.71800
Cu25       Cu  0.09910989  0.40068229  0.23129793     1.04600
Cu26       Cu  0.04383437  0.45597417  0.23148429     1.04300
C27         C  0.13879260  0.00352142  0.15669096     0.94600
C28         C  0.48410367  0.34762252  0.29770425     0.93700
C29         C  0.49542982  0.36285616  0.15660323     0.85800
C30         C  0.15414608  0.01479638  0.29797924     0.92100
C31         C  0.44578679  0.33073247  0.11646285     0.03600
C32         C  0.37956889  0.32284904  0.11900461     0.03500
C33         C  0.34534721  0.31482874  0.07431724    -0.17000
C34         C  0.37161537  0.31047156  0.02779555     0.03600
C35         C  0.43802842  0.31708190  0.02637996     0.03500
C36         C  0.47414229  0.33117475  0.07094602    -0.17000
H37         H  0.02485984  0.33851335  0.07075136     0.05600
H38         H  0.29611359  0.31040947  0.07596033     0.05600
C39         C  0.44083566  0.32669928  0.34390549     0.03600
C40         C  0.37562818  0.32136311  0.34599462     0.03500
C41         C  0.34389386  0.31266610  0.39138543    -0.17000
C42         C  0.37256362  0.30876005  0.43638659     0.03600
C43         C  0.43919340  0.31590332  0.43497367     0.03500
C44         C  0.47178543  0.32691860  0.38854855    -0.17000
H45         H  0.02125997  0.33163970  0.38688335     0.05600
H46         H  0.29554224  0.31030828  0.39143203     0.05600
C47         C  0.38772886  0.04969797  0.11884955     0.03600
C48         C  0.45320131  0.11153990  0.11648433     0.03500
C49         C  0.47953852  0.14224392  0.07112582    -0.17000
C50         C  0.44184009  0.11920036  0.02715242     0.03600
C51         C  0.37671894  0.05535747  0.02818411     0.03500
C52         C  0.35306906  0.02170448  0.07424543    -0.17000
H53         H  0.30858872  0.46758021  0.07033792     0.05600
H54         H  0.02953146  0.18856128  0.07081503     0.05600
C55         C  0.44888927  0.10985631  0.34397066     0.03600
C56         C  0.38641705  0.04499774  0.34633935     0.03500
C57         C  0.35602938  0.01857718  0.39177663    -0.17000
C58         C  0.37981148  0.05572976  0.43589397     0.03600
C59         C  0.44395574  0.12068436  0.43465542     0.03500
C60         C  0.47763928  0.14391964  0.38855977    -0.17000
H61         H  0.02525828  0.19252686  0.38691090     0.05600
H62         H  0.30516177  0.47516798  0.38680552     0.05600
O63         O  0.47745606  0.09311400  0.26366760    -0.71600
O64         O  0.13536367  0.10311210  0.20082103    -0.72600
O65         O  0.08544413  0.09519193  0.29795784    -0.61200
O66         O  0.51856420  0.08839250  0.16701542    -0.69700
O67         O  0.03174091  0.18859569  0.18061575    -0.69200
O68         O  0.17320769  0.19651426  0.28206568    -0.60500
O69         O  0.16121252  0.19932327  0.16959417    -0.73000
O70         O  0.04615794  0.19368125  0.29252004    -0.71800
Cu71       Cu  0.05272616  0.09169355  0.23228208     1.04600
Cu72       Cu  0.10700252  0.20267518  0.23127818     1.04300
C73         C  0.49113464  0.13550567  0.29738187     0.94600
C74         C  0.16102431  0.14394233  0.16560923     0.93700
C75         C  0.14562152  0.14078262  0.30709572     0.85800
C76         C  0.50377224  0.13209124  0.15640444     0.92100
O77         O  0.29758238  0.33742650  0.16975271    -0.71600
O78         O  0.30392320  0.45289188  0.29277704    -0.72600
O79         O  0.30824147  0.46613046  0.18080927    -0.61200
O80         O  0.29989911  0.32525893  0.28228935    -0.69700
O81         O  0.40092119  0.41315491  0.29885799    -0.67400
O82         O  0.40439538  0.02161446  0.19935757    -0.60500
O83         O  0.40952124  0.98002562  0.29588016    -0.73000
O84         O  0.39355630  0.36205008  0.20169860    -0.71800
Cu85       Cu  0.29408434  0.39147725  0.23153010     1.04600
Cu86       Cu  0.40524657  0.44507771  0.23282375     1.04300
C87         C  0.35318504  0.33746501  0.16597033     0.94600
C88         C  0.36562282  0.99470833  0.30642435     0.93700
C89         C  0.36196169  0.00757262  0.16544133     0.85800
C90         C  0.35574444  0.35298674  0.30753628     0.92100
C91         C  0.11711686  0.17544763  0.84452733     0.03600
C92         C  0.05084723  0.16752439  0.84662957     0.03500
C93         C  0.02188296  0.16636665  0.89195660    -0.17000
C94         C  0.05760575  0.18057786  0.93667835     0.03600
C95         C  0.12449553  0.18832275  0.93581864     0.03500
C96         C  0.15128347  0.18410869  0.88943952    -0.17000
H97         H  0.20070070  0.18892573  0.88810239     0.05600
H98         H  0.47095222  0.15853763  0.89186318     0.05600
C99         C  0.04876072  0.38818997  0.84412839     0.03600
C100        C  0.11075351  0.45344252  0.84678646     0.03500
C101        C  0.14125822  0.48000652  0.89237151    -0.17000
C102        C  0.11790866  0.44268631  0.93644500     0.03600
C103        C  0.05389707  0.37750081  0.93469140     0.03500
C104        C  0.02017258  0.35420137  0.88858481    -0.17000
H105        H  0.47270559  0.30544145  0.88678350     0.05600
H106        H  0.18796734  0.02981735  0.89228249     0.05600
C107        C  0.32469846  0.44065603  0.84381810     0.03600
C108        C  0.32100159  0.37654835  0.84574189     0.03500
C109        C  0.31252794  0.34458668  0.89100776    -0.17000
C110        C  0.30729853  0.37209322  0.93610186     0.03600
C111        C  0.31333872  0.43788998  0.93490911     0.03500
C112        C  0.32364613  0.47051891  0.88858988    -0.17000
H113        H  0.32708968  0.01919814  0.88731778     0.05600
H114        H  0.31112470  0.29691546  0.89088486     0.05600
C115        C  0.10915217  0.44797161  0.61907782     0.03600
C116        C  0.04408202  0.38561108  0.61638836     0.03500
C117        C  0.01786690  0.35515982  0.57079106    -0.17000
C118        C  0.05544704  0.37898815  0.52682215     0.03600
C119        C  0.12042261  0.44291870  0.52855139     0.03500
C120        C  0.14364166  0.47641656  0.57467998    -0.17000
H121        H  0.19412144  0.02394185  0.57622503     0.05600
H122        H  0.46809094  0.30859587  0.57021894     0.05600
O123        O  0.09174560  0.47697604  0.69907339    -0.71600
O124        O  0.10308242  0.13520665  0.76213653    -0.72600
O125        O  0.09648206  0.08525806  0.66498728    -0.61200
O126        O  0.08673639  0.51742591  0.79586009    -0.69700
O127        O  0.18901570  0.03175598  0.78256906    -0.69200
O128        O  0.19743827  0.17334222  0.68176646    -0.60500
O129        O  0.19918906  0.16041418  0.79422253    -0.73000
O130        O  0.19440618  0.04642385  0.67066961    -0.71800
Cu131      Cu  0.09216641  0.05279225  0.73075300     1.04600
Cu132      Cu  0.20334257  0.10696645  0.73225621     1.04300
C133        C  0.13455357  0.49046419  0.66563673     0.94600
C134        C  0.14349554  0.16022859  0.79783122     0.93700
C135        C  0.14164716  0.14550733  0.65641648     0.85800
C136        C  0.13108746  0.50343689  0.80679188     0.92100
C137        C  0.05706700  0.17205337  0.61911309     0.03600
C138        C  0.12210831  0.17702331  0.61764468     0.03500
C139        C  0.15427991  0.18535454  0.57259725    -0.17000
C140        C  0.12643409  0.18947630  0.52732489     0.03600
C141        C  0.06022816  0.18340574  0.52789925     0.03500
C142        C  0.02700741  0.17261605  0.57411438    -0.17000
H143        H  0.47781505  0.16853073  0.57531306     0.05600
H144        H  0.20252447  0.18746051  0.57306852     0.05600
C145        C  0.32206451  0.38134334  0.61876680     0.03600
C146        C  0.32943480  0.44702197  0.61614825     0.03500
C147        C  0.33032018  0.47519138  0.57050880    -0.17000
C148        C  0.31684466  0.43932759  0.52589157     0.03600
C149        C  0.30986499  0.37297633  0.52757630     0.03500
C150        C  0.31406067  0.34709357  0.57421581    -0.17000
H151        H  0.30980697  0.29817599  0.57606158     0.05600
H152        H  0.33801535  0.02494840  0.57059779     0.05600
O153        O  0.02636019  0.12155873  0.69805078    -0.71600
O154        O  0.37462886  0.47118046  0.76458122    -0.72600
O155        O  0.41976897  0.50991886  0.66734929    -0.61200
O156        O  0.98884310  0.07755030  0.79526975    -0.69700
O157        O  0.47233047  0.16211974  0.78236871    -0.69200
O158        O  0.33390567  0.02401464  0.68006708    -0.60500
O159        O  0.34285021  0.03778446  0.79208055    -0.73000
O160        O  0.45898168  0.15288625  0.67044822    -0.71800
Cu161      Cu  0.45355111  0.04287969  0.73134951     1.04600
Cu162      Cu  0.39826337  0.09794197  0.73121957     1.04300
C163        C  0.01348218  0.15125266  0.66515821     0.94600
C164        C  0.34484768  0.48380587  0.79761759     0.93700
C165        C  0.36105257  0.49650745  0.65638355     0.85800
C166        C  0.00149609  0.13571301  0.80625044     0.92100
O167        O  0.46557474  0.30849573  0.68042175    -0.71600
O168        O  0.32479602  0.30182308  0.78170520    -0.72600
O169        O  0.33681955  0.29979723  0.66940847    -0.61200
O170        O  0.45137619  0.30390240  0.79255008    -0.69700
O171        O  0.02102203  0.40367868  0.76316362    -0.69200
O172        O  0.36389017  0.39645072  0.70067980    -0.60500
O173        O  0.41323930  0.40278755  0.79788929    -0.73000
O174        O  0.97873159  0.40857351  0.66666895    -0.71800
Cu175      Cu  0.39063877  0.29528839  0.73105698     1.04600
Cu176      Cu  0.44577463  0.40613226  0.73207937     1.04300
C177        C  0.99347626  0.36486748  0.65614347     0.94600
C178        C  0.35286406  0.35747577  0.80689830     0.93700
C179        C  0.33768677  0.35558293  0.66549279     0.85800
C180        C  0.00679116  0.36185440  0.79730473     0.92100
C181        C  0.21139597  0.17726338  0.98600827     0.03600
C182        C  0.17541829  0.21201173  0.97769989     0.03500
C183        C  0.21266558  0.28326048  0.98302830    -0.17000
C184        C  0.28425691  0.32192111  0.97836825     0.03600
C185        C  0.32004621  0.28689369  0.98657532     0.03500
C186        C  0.28284903  0.21577808  0.98128947    -0.17000
H187        H  0.30959648  0.19036810  0.98786883     0.05600
H188        H  0.18594333  0.30869263  0.97641235     0.05600
C189        C  0.46238396  0.28422615  0.99058083     0.03600
C190        C  0.03024301  0.31976540  0.97034112     0.03500
C191        C  0.06152627  0.28227944  0.96119007    -0.17000
C192        C  0.03245810  0.21306144  0.97187009     0.03600
C193        C  0.46450360  0.17716325  0.99179230     0.03500
C194        C  0.43351312  0.21491434  0.00154764    -0.17000
H195        H  0.39425076  0.19502573  0.02925018     0.05600
H196        H  0.10164781  0.30246956  0.93414806     0.05600
C197        C  0.17595774  0.46569995  0.97259181     0.03600
C198        C  0.21292639  0.03464940  0.98988713     0.03500
C199        C  0.28304096  0.06425029  0.99880402    -0.17000
C200        C  0.31988417  0.03190402  0.99117121     0.03600
C201        C  0.28346782  0.46387167  0.97161873     0.03500
C202        C  0.21301419  0.43399640  0.96348069    -0.17000
H203        H  0.19104677  0.39278534  0.93761149     0.05600
H204        H  0.30440329  0.10554281  0.02455840     0.05600
C205        C  0.17777575  0.46689508  0.49229635     0.03600
C206        C  0.21478827  0.03481100  0.47247427     0.03500
C207        C  0.28494887  0.06444181  0.46352707    -0.17000
C208        C  0.32201943  0.03257267  0.47182602     0.03600
C209        C  0.28469682  0.46407885  0.48965317     0.03500
C210        C  0.21498153  0.43485305  0.49986010    -0.17000
H211        H  0.19444337  0.39414423  0.52607546     0.05600
H212        H  0.30629628  0.10539547  0.43751485     0.05600
C213        C  0.03333613  0.32167141  0.49067386     0.03600
C214        C  0.46539070  0.28511009  0.47073388     0.03500
C215        C  0.43598098  0.21554247  0.46120021    -0.17000
C216        C  0.46723716  0.17819349  0.47078924     0.03600
C217        C  0.03502036  0.21438927  0.49118374     0.03500
C218        C  0.06447004  0.28417561  0.50064575    -0.17000
H219        H  0.10441770  0.30492995  0.52776891     0.05600
H220        H  0.39546196  0.19475609  0.43446070     0.05600
C221        C  0.17735972  0.21223873  0.48567100     0.03600
C222        C  0.21318650  0.17688768  0.47824122     0.03500
C223        C  0.28472965  0.21488583  0.48411815    -0.17000
C224        C  0.32271516  0.28613804  0.47892726     0.03600
C225        C  0.28679658  0.32122762  0.48656622     0.03500
C226        C  0.21538911  0.28343654  0.48079102    -0.17000
H227        H  0.18907074  0.30944179  0.48689801     0.05600
H228        H  0.31125476  0.18903691  0.47805785     0.05600
C229        C  0.16959683  0.55285215  0.34655829     0.03600
C230        C  0.17693947  0.61854463  0.34412203     0.03500
C231        C  0.18422879  0.65222816  0.38883827    -0.17000
C232        C  0.18806010  0.62589725  0.43541186     0.03600
C233        C  0.18156027  0.55979633  0.43687579     0.03500
C234        C  0.16870809  0.52440357  0.39209866    -0.17000
H235        H  0.17054288  0.97886725  0.38790004     0.05600
H236        H  0.18838562  0.70111501  0.38719137     0.05600
C237        C  0.17857376  0.62328037  0.11706427     0.03600
C238        C  0.17369443  0.55855985  0.11893904     0.03500
C239        C  0.17382528  0.52820209  0.07417119    -0.17000
C240        C  0.18416944  0.56068545  0.02781232     0.03600
C241        C  0.19127943  0.62697315  0.02665393     0.03500
C242        C  0.18731288  0.65519635  0.07179326    -0.17000
H243        H  0.18945907  0.70322522  0.07191924     0.05600
H244        H  0.16310174  0.97466817  0.07102898     0.05600
O245        O  0.16550274  0.97475689  0.18072686    -0.71600
O246        O  0.02572882  0.83626413  0.28236908    -0.72600
O247        O  0.04012508  0.84611202  0.17035586    -0.61200
O248        O  0.15531646  0.96026746  0.29283831    -0.69700
O249        O  0.07925564  0.49140632  0.29521520    -0.69200
O250        O  0.47249274  0.87695039  0.19819545    -0.60500
O251        O  0.51032746  0.92147196  0.29558186    -0.73000
O252        O  0.12268289  0.52791391  0.19774979    -0.71800
Cu253      Cu  0.10045439  0.90052380  0.23156418     1.04600
Cu254      Cu  0.04565370  0.95573729  0.23144012     1.04300
C255        C  0.15274464  0.51519959  0.16504287     0.94600
C256        C  0.49693293  0.86299302  0.30635821     0.93700
C257        C  0.48567065  0.84784416  0.16499877     0.85800
C258        C  0.13748365  0.50354819  0.30631059     0.92100
C259        C  0.44267744  0.82806222  0.11862001     0.03600
C260        C  0.37774280  0.82321877  0.11692479     0.03500
C261        C  0.34557516  0.81475580  0.07178896    -0.17000
C262        C  0.37328627  0.81010160  0.02662504     0.03600
C263        C  0.43976951  0.81674174  0.02743288     0.03500
C264        C  0.47314039  0.82820661  0.07369542    -0.17000
H265        H  0.02248844  0.83262605  0.07504667     0.05600
H266        H  0.29737267  0.81272148  0.07214769     0.05600
C267        C  0.44694819  0.83107525  0.34642395     0.03600
C268        C  0.38082574  0.82342338  0.34387291     0.03500
C269        C  0.34604808  0.81473084  0.38848901    -0.17000
C270        C  0.37203933  0.81016167  0.43508580     0.03600
C271        C  0.43866944  0.81734719  0.43641051     0.03500
C272        C  0.47502767  0.83154028  0.39198522    -0.17000
H273        H  0.02580841  0.83901618  0.39231431     0.05600
H274        H  0.29679753  0.81025813  0.38675859     0.05600
C275        C  0.38566279  0.54351074  0.11656692     0.03600
C276        C  0.44785689  0.60857659  0.11932974     0.03500
C277        C  0.47636616  0.64293282  0.07499182    -0.17000
C278        C  0.44272820  0.61997189  0.02886537     0.03600
C279        C  0.37869673  0.55488474  0.02691537     0.03500
C280        C  0.35509534  0.51732581  0.07090124    -0.17000
H281        H  0.30402317  0.97455564  0.07582754     0.05600
H282        H  0.02389741  0.69162794  0.07688983     0.05600
C283        C  0.45443347  0.61166383  0.34666490     0.03600
C284        C  0.38879035  0.55008079  0.34406348     0.03500
C285        C  0.35422284  0.52232926  0.38850060    -0.17000
C286        C  0.37774429  0.55619753  0.43448484     0.03600
C287        C  0.44288155  0.62005115  0.43602568     0.03500
C288        C  0.48071970  0.64281742  0.39210900    -0.17000
H289        H  0.03070223  0.68911568  0.39252351     0.05600
H290        H  0.30941889  0.96887507  0.39206142     0.05600
O291        O  0.51961905  0.58837250  0.29587156    -0.71600
O292        O  0.08618632  0.59716087  0.16433828    -0.72600
O293        O  0.13752336  0.60466450  0.26147214    -0.61200
O294        O  0.47744540  0.59199554  0.19936044    -0.69700
O295        O  0.04522612  0.69292260  0.17077617    -0.69200
O296        O  0.16176893  0.69994616  0.29353756    -0.60500
O297        O  0.17399988  0.69801197  0.18098776    -0.73000
O298        O  0.03218803  0.68841792  0.28253540    -0.71800
Cu299      Cu  0.05379297  0.59227332  0.23037247     1.04600
Cu300      Cu  0.10718210  0.70302532  0.23184441     1.04300
C301        C  0.50470844  0.63200199  0.30669779     0.94600
C302        C  0.14648354  0.64252454  0.15563995     0.93700
C303        C  0.16207060  0.64477500  0.29722618     0.85800
C304        C  0.49038512  0.63444058  0.16589220     0.92100
O305        O  0.30215504  0.82655959  0.18078238    -0.71600
O306        O  0.30889200  0.96682574  0.28217662    -0.72600
O307        O  0.30380682  0.95242447  0.17017802    -0.61200
O308        O  0.29928904  0.83837316  0.29308294    -0.69700
O309        O  0.39628591  0.86489563  0.26192395    -0.67400
O310        O  0.40856474  0.47844460  0.16731012    -0.60500
O311        O  0.40489039  0.52094078  0.26377600    -0.73000
O312        O  0.40341819  0.91469308  0.16482182    -0.71800
Cu313      Cu  0.29529475  0.89206298  0.23148514     1.04600
Cu314      Cu  0.40669327  0.94682418  0.23055264     1.04300
C315        C  0.35815534  0.85457417  0.15576699     0.94600
C316        C  0.36251882  0.50770914  0.29751861     0.93700
C317        C  0.36485527  0.49339914  0.15654865     0.85800
C318        C  0.35518349  0.83905443  0.29709936     0.92100
C319        C  0.11653202  0.67525463  0.84441769     0.03600
C320        C  0.05061430  0.66813555  0.84710233     0.03500
C321        C  0.02232145  0.66681726  0.89282035    -0.17000
C322        C  0.05863891  0.68047837  0.93730812     0.03600
C323        C  0.12530561  0.68768358  0.93554578     0.03500
C324        C  0.15109834  0.68325889  0.88890985    -0.17000
H325        H  0.20021440  0.68745900  0.88700300     0.05600
H326        H  0.47158456  0.65943908  0.89325861     0.05600
C327        C  0.04916604  0.88835070  0.84372726     0.03600
C328        C  0.11127452  0.95352267  0.84634595     0.03500
C329        C  0.14167022  0.97987604  0.89183954    -0.17000
C330        C  0.11830286  0.94246595  0.93579601     0.03600
C331        C  0.05491326  0.87700151  0.93428228     0.03500
C332        C  0.02119406  0.85352102  0.88816339    -0.17000
H333        H  0.47404286  0.80450579  0.88641514     0.05600
H334        H  0.18762993  0.52986989  0.89278395     0.05600
C335        C  0.32366225  0.94026160  0.84364774     0.03600
C336        C  0.31896567  0.87562868  0.84522472     0.03500
C337        C  0.31112570  0.84395471  0.89035219    -0.17000
C338        C  0.30758140  0.87198652  0.93566092     0.03600
C339        C  0.31339395  0.93783986  0.93501738     0.03500
C340        C  0.32325902  0.97035797  0.88862921    -0.17000
H341        H  0.32719847  0.51923476  0.88714346     0.05600
H342        H  0.30924016  0.79603417  0.88993889     0.05600
C343        C  0.11008287  0.94931320  0.61903455     0.03600
C344        C  0.04434117  0.88783586  0.61644750     0.03500
C345        C  0.01748463  0.85762859  0.57096556    -0.17000
C346        C  0.05512390  0.88019601  0.52700743     0.03600
C347        C  0.12096722  0.94349638  0.52836014     0.03500
C348        C  0.14481196  0.97708861  0.57450376    -0.17000
H349        H  0.19238663  0.52390178  0.57648865     0.05600
H350        H  0.46713189  0.81176115  0.57059463     0.05600
O351        O  0.09362920  0.97750357  0.69960308    -0.71600
O352        O  0.10097445  0.63342024  0.76257395    -0.72600
O353        O  0.09382205  0.58448872  0.66519991    -0.61200
O354        O  0.08853423  0.01902874  0.79604093    -0.69700
O355        O  0.18789810  0.53151388  0.78273704    -0.69200
O356        O  0.19564769  0.67193249  0.68120097    -0.60500
O357        O  0.19794781  0.65997080  0.79366178    -0.73000
O358        O  0.19292937  0.54532853  0.67072726    -0.71800
Cu359      Cu  0.09008228  0.55161379  0.73074249     1.04600
Cu360      Cu  0.20170665  0.60606887  0.73201098     1.04300
C361        C  0.13608683  0.99137231  0.66576591     0.94600
C362        C  0.14209457  0.65935032  0.79769873     0.93700
C363        C  0.13967550  0.64436236  0.65608364     0.85800
C364        C  0.13217148  0.00394434  0.80658825     0.92100
C365        C  0.05612838  0.67234279  0.61911860     0.03600
C366        C  0.12059166  0.67610553  0.61718693     0.03500
C367        C  0.15235091  0.68395587  0.57185451    -0.17000
C368        C  0.12465296  0.68909327  0.52677111     0.03600
C369        C  0.05860476  0.68330976  0.52803960     0.03500
C370        C  0.02574920  0.67265788  0.57435111    -0.17000
H371        H  0.47671840  0.66892366  0.57584076     0.05600
H372        H  0.20016223  0.68520490  0.57196475     0.05600
C373        C  0.32089622  0.87970209  0.61830997     0.03600
C374        C  0.32869607  0.94558856  0.61604045     0.03500
C375        C  0.33014920  0.97424533  0.57063570    -0.17000
C376        C  0.31650063  0.93866523  0.52596488     0.03600
C377        C  0.30834421  0.87198993  0.52700168     0.03500
C378        C  0.31225480  0.84541627  0.57349652    -0.17000
H379        H  0.30738876  0.79621362  0.57496690     0.05600
H380        H  0.33759826  0.52564230  0.57024221     0.05600
O381        O  0.02661194  0.62439738  0.69889491    -0.71600
O382        O  0.37418658  0.97058499  0.76461534    -0.72600
O383        O  0.41895881  0.00769072  0.66740109    -0.61200
O384        O  0.98771839  0.57832288  0.79599974    -0.69700
O385        O  0.47202510  0.66329039  0.78287078    -0.69200
O386        O  0.33386416  0.52480800  0.68038399    -0.60500
O387        O  0.34293430  0.53796162  0.79239497    -0.73000
O388        O  0.45831075  0.65397214  0.67060847    -0.71800
Cu389      Cu  0.45370796  0.54452814  0.73166893     1.04600
Cu390      Cu  0.39793819  0.59877419  0.73158874     1.04300
C391        C  0.01313739  0.65288137  0.66548336     0.94600
C392        C  0.34443419  0.98351821  0.79749321     0.93700
C393        C  0.36052676  0.99495532  0.65632478     0.85800
C394        C  0.00080210  0.63660061  0.80692300     0.92100
O395        O  0.46623224  0.81046842  0.68035189    -0.71600
O396        O  0.32342346  0.80078236  0.78123490    -0.72600
O397        O  0.33658138  0.79872561  0.66883225    -0.61200
O398        O  0.45158193  0.80476168  0.79213723    -0.69700
O399        O  0.01999181  0.90568912  0.76377527    -0.69200
O400        O  0.36111772  0.89424230  0.70075510    -0.60500
O401        O  0.41134026  0.90158966  0.79804569    -0.73000
O402        O  0.97903193  0.91064250  0.66726255    -0.71800
Cu403      Cu  0.39055765  0.79548302  0.73073042     1.04600
Cu404      Cu  0.44429244  0.90630494  0.73238307     1.04300
C405        C  0.99403278  0.86713686  0.65643526     0.94600
C406        C  0.35093132  0.85635854  0.80654107     0.93700
C407        C  0.33633380  0.85388570  0.66510000     0.85800
C408        C  0.00658912  0.86299931  0.79718859     0.92100
C409        C  0.21357358  0.67670335  0.98417595     0.03600
C410        C  0.17739391  0.71146427  0.97649976     0.03500
C411        C  0.21427421  0.78254901  0.98239455    -0.17000
C412        C  0.28575418  0.82150413  0.97744797     0.03600
C413        C  0.32231000  0.78682406  0.98480852     0.03500
C414        C  0.28515497  0.71557429  0.97904777    -0.17000
H415        H  0.31207821  0.69014383  0.98512746     0.05600
H416        H  0.18731919  0.80792892  0.97640771     0.05600
C417        C  0.46471197  0.78469826  0.99155464     0.03600
C418        C  0.03212219  0.82008096  0.97075033     0.03500
C419        C  0.06336482  0.78241885  0.96189239    -0.17000
C420        C  0.03451018  0.71327145  0.97320905     0.03600
C421        C  0.46663912  0.67784462  0.99332284     0.03500
C422        C  0.43555865  0.71548648  0.00238718    -0.17000
H423        H  0.39541645  0.69535341  0.02944050     0.05600
H424        H  0.10275043  0.80196046  0.93432804     0.05600
C425        C  0.17601819  0.96591478  0.97183786     0.03600
C426        C  0.21366869  0.53417584  0.99120189     0.03500
C427        C  0.28413478  0.56409048  0.99919934    -0.17000
C428        C  0.32104887  0.53217900  0.99045977     0.03600
C429        C  0.28325430  0.96361080  0.97218313     0.03500
C430        C  0.21297005  0.93380897  0.96369839    -0.17000
H431        H  0.19126466  0.89239885  0.93810839     0.05600
H432        H  0.30620013  0.60562849  0.02474552     0.05600
C433        C  0.17809826  0.96670791  0.49166784     0.03600
C434        C  0.21358520  0.53511893  0.47329962     0.03500
C435        C  0.28338247  0.56444221  0.46324697    -0.17000
C436        C  0.32052644  0.53236064  0.47078164     0.03600
C437        C  0.28507788  0.96407261  0.49014430     0.03500
C438        C  0.21512321  0.93468173  0.49969857    -0.17000
H439        H  0.19409966  0.89381323  0.52582883     0.05600
H440        H  0.30416353  0.60525275  0.43709023     0.05600
C441        C  0.03165296  0.82162517  0.49183871     0.03600
C442        C  0.46344076  0.78518016  0.47213269     0.03500
C443        C  0.43420552  0.71556027  0.46187782    -0.17000
C444        C  0.46527225  0.67798113  0.47180524     0.03600
C445        C  0.03309293  0.71446651  0.49207068     0.03500
C446        C  0.06268884  0.78416514  0.50167900    -0.17000
H447        H  0.10311472  0.80512347  0.52848115     0.05600
H448        H  0.39444714  0.69510192  0.43456112     0.05600
C449        C  0.17524110  0.71226717  0.48460130     0.03600
C450        C  0.21123595  0.67733008  0.47656001     0.03500
C451        C  0.28277593  0.71535720  0.48146661    -0.17000
C452        C  0.32049889  0.78644701  0.47655991     0.03600
C453        C  0.28485843  0.82141205  0.48504727     0.03500
C454        C  0.21326002  0.78350847  0.47979492    -0.17000
H455        H  0.18689956  0.80931874  0.48636307     0.05600
H456        H  0.30921080  0.68965150  0.47485512     0.05600
C457        C  0.67377547  0.05765102  0.34432357     0.03600
C458        C  0.67763768  0.12185492  0.34599659     0.03500
C459        C  0.68577025  0.15378426  0.39114260    -0.17000
C460        C  0.69053538  0.12631695  0.43634761     0.03600
C461        C  0.68437306  0.06036863  0.43558930     0.03500
C462        C  0.67419759  0.02763192  0.38924624    -0.17000
H463        H  0.66168707  0.47405891  0.39220555     0.05600
H464        H  0.68722210  0.20147889  0.39079039     0.05600
C465        C  0.67700500  0.11849198  0.11888686     0.03600
C466        C  0.67061323  0.05319075  0.11658671     0.03500
C467        C  0.66977445  0.02488202  0.07111012    -0.17000
C468        C  0.68194734  0.06002481  0.02635094     0.03600
C469        C  0.68840062  0.12608935  0.02752704     0.03500
C470        C  0.68428989  0.15227749  0.07412323    -0.17000
H471        H  0.68795697  0.20093828  0.07572905     0.05600
H472        H  0.66941600  0.47909350  0.07564351     0.05600
O473        O  0.65455478  0.46105595  0.17052788    -0.71600
O474        O  0.53833271  0.34556931  0.29198743    -0.72600
O475        O  0.52504814  0.33671295  0.18019229    -0.61200
O476        O  0.66373615  0.47420775  0.28250428    -0.69700
O477        O  0.62557120  0.02824961  0.26451755    -0.69200
O478        O  0.00766964  0.42084005  0.16778919    -0.60500
O479        O  0.97137979  0.37791405  0.26525196    -0.73000
O480        O  0.58007987  0.99021206  0.16734434    -0.71800
Cu481      Cu  0.59910950  0.40068217  0.23129756     1.04600
Cu482      Cu  0.54383406  0.45597416  0.23148398     1.04300
C483        C  0.63879180  0.00352122  0.15669084     0.94600
C484        C  0.98410403  0.34762275  0.29770454     0.93700
C485        C  0.99543048  0.36285634  0.15660337     0.85800
C486        C  0.65414536  0.01479582  0.29797913     0.92100
C487        C  0.94578714  0.33073260  0.11646316     0.03600
C488        C  0.87956927  0.32284926  0.11900499     0.03500
C489        C  0.84534731  0.31482860  0.07431766    -0.17000
C490        C  0.87161543  0.31047141  0.02779594     0.03600
C491        C  0.93802847  0.31708180  0.02638033     0.03500
C492        C  0.97414236  0.33117447  0.07094636    -0.17000
H493        H  0.52485966  0.33851307  0.07075111     0.05600
H494        H  0.79611379  0.31040966  0.07596067     0.05600
C495        C  0.94083610  0.32669963  0.34390581     0.03600
C496        C  0.87562859  0.32136371  0.34599492     0.03500
C497        C  0.84389426  0.31266636  0.39138562    -0.17000
C498        C  0.87256351  0.30875989  0.43638675     0.03600
C499        C  0.93919363  0.31590344  0.43497396     0.03500
C500        C  0.97178559  0.32691859  0.38854884    -0.17000
H501        H  0.52125951  0.33164008  0.38688310     0.05600
H502        H  0.79554145  0.31030793  0.39143209     0.05600
C503        C  0.88772888  0.04969780  0.11884973     0.03600
C504        C  0.95320099  0.11154006  0.11648448     0.03500
C505        C  0.97953824  0.14224400  0.07112598    -0.17000
C506        C  0.94183955  0.11920021  0.02715265     0.03600
C507        C  0.87671860  0.05535702  0.02818424     0.03500
C508        C  0.85306906  0.02170417  0.07424566    -0.17000
H509        H  0.80858828  0.46758057  0.07033805     0.05600
H510        H  0.52953223  0.18856160  0.07081486     0.05600
C511        C  0.94888958  0.10985707  0.34397071     0.03600
C512        C  0.88641738  0.04499841  0.34633943     0.03500
C513        C  0.85602959  0.01857762  0.39177671    -0.17000
C514        C  0.87981165  0.05573023  0.43589400     0.03600
C515        C  0.94395596  0.12068473  0.43465548     0.03500
C516        C  0.97763940  0.14392011  0.38855985    -0.17000
H517        H  0.52525818  0.19252564  0.38691090     0.05600
H518        H  0.80516129  0.47516841  0.38680577     0.05600
O519        O  0.97745608  0.09311499  0.26366756    -0.71600
O520        O  0.63536422  0.10311245  0.20082109    -0.72600
O521        O  0.58544454  0.09519224  0.29795785    -0.61200
O522        O  0.01856428  0.08839319  0.16701530    -0.69700
O523        O  0.53174070  0.18859502  0.18061576    -0.69200
O524        O  0.67320775  0.19651432  0.28206551    -0.60500
O525        O  0.66121228  0.19932315  0.16959393    -0.73000
O526        O  0.54615741  0.19368047  0.29251999    -0.71800
Cu527      Cu  0.55272640  0.09169327  0.23228212     1.04600
Cu528      Cu  0.60700225  0.20267479  0.23127806     1.04300
C529        C  0.99113508  0.13550653  0.29738198     0.94600
C530        C  0.66102446  0.14394244  0.16560908     0.93700
C531        C  0.64562192  0.14078274  0.30709550     0.85800
C532        C  0.00377228  0.13209187  0.15640443     0.92100
O533        O  0.79758296  0.33742684  0.16975308    -0.71600
O534        O  0.80392321  0.45289199  0.29277743    -0.72600
O535        O  0.80824157  0.46613066  0.18080952    -0.61200
O536        O  0.79989966  0.32525948  0.28228964    -0.69700
O537        O  0.90092199  0.41315546  0.29885809    -0.67400
O538        O  0.90439597  0.02161468  0.19935761    -0.60500
O539        O  0.90952206  0.98002662  0.29588031    -0.73000
O540        O  0.89355726  0.36205107  0.20169869    -0.71800
Cu541      Cu  0.79408470  0.39147753  0.23153040     1.04600
Cu542      Cu  0.90524710  0.44507836  0.23282382     1.04300
C543        C  0.85318573  0.33746554  0.16597066     0.94600
C544        C  0.86562334  0.99470888  0.30642458     0.93700
C545        C  0.86196199  0.00757278  0.16544157     0.85800
C546        C  0.85574508  0.35298735  0.30753650     0.92100
C547        C  0.61711746  0.17544800  0.84452719     0.03600
C548        C  0.55084750  0.16752425  0.84662951     0.03500
C549        C  0.52188317  0.16636661  0.89195649    -0.17000
C550        C  0.55760598  0.18057793  0.93667816     0.03600
C551        C  0.62449597  0.18832308  0.93581842     0.03500
C552        C  0.65128398  0.18410919  0.88943938    -0.17000
H553        H  0.70070151  0.18892567  0.88810245     0.05600
H554        H  0.97095235  0.15853800  0.89186322     0.05600
C555        C  0.54876059  0.38819012  0.84412804     0.03600
C556        C  0.61075364  0.45344265  0.84678610     0.03500
C557        C  0.64125852  0.48000646  0.89237115    -0.17000
C558        C  0.61790872  0.44268635  0.93644461     0.03600
C559        C  0.55389712  0.37750073  0.93469098     0.03500
C560        C  0.52017264  0.35420159  0.88858447    -0.17000
H561        H  0.97270588  0.30544205  0.88678388     0.05600
H562        H  0.68796764  0.02981782  0.89228255     0.05600
C563        C  0.82469852  0.44065552  0.84381850     0.03600
C564        C  0.82100213  0.37654809  0.84574248     0.03500
C565        C  0.81252850  0.34458659  0.89100843    -0.17000
C566        C  0.80729879  0.37209310  0.93610248     0.03600
C567        C  0.81333894  0.43788987  0.93490953     0.03500
C568        C  0.82364625  0.47051863  0.88859024    -0.17000
H569        H  0.82708976  0.01919797  0.88731776     0.05600
H570        H  0.81112602  0.29691575  0.89088570     0.05600
C571        C  0.60915201  0.44797180  0.61907735     0.03600
C572        C  0.54408179  0.38561142  0.61638784     0.03500
C573        C  0.51786667  0.35516017  0.57079053    -0.17000
C574        C  0.55544720  0.37898830  0.52682176     0.03600
C575        C  0.62042282  0.44291882  0.52855102     0.03500
C576        C  0.64364178  0.47641665  0.57467961    -0.17000
H577        H  0.69411973  0.02394055  0.57622477     0.05600
H578        H  0.96809067  0.30859592  0.57021938     0.05600
O579        O  0.59174553  0.47697627  0.69907285    -0.71600
O580        O  0.60308344  0.13520778  0.76213607    -0.72600
O581        O  0.59648338  0.08525879  0.66498701    -0.61200
O582        O  0.58673654  0.51742616  0.79585971    -0.69700
O583        O  0.68901579  0.03175578  0.78256884    -0.69200
O584        O  0.69743917  0.17334277  0.68176649    -0.60500
O585        O  0.69918944  0.16041404  0.79422254    -0.73000
O586        O  0.69440627  0.04642391  0.67066934    -0.71800
Cu587      Cu  0.59216721  0.05279301  0.73075279     1.04600
Cu588      Cu  0.70334302  0.10696653  0.73225609     1.04300
C589        C  0.63455353  0.49046434  0.66563624     0.94600
C590        C  0.64349620  0.16022906  0.79783103     0.93700
C591        C  0.64164816  0.14550814  0.65641644     0.85800
C592        C  0.63108751  0.50343696  0.80679149     0.92100
C593        C  0.55706755  0.17205375  0.61911300     0.03600
C594        C  0.62210906  0.17702413  0.61764461     0.03500
C595        C  0.65428063  0.18535558  0.57259712    -0.17000
C596        C  0.62643452  0.18947690  0.52732471     0.03600
C597        C  0.56022850  0.18340614  0.52789910     0.03500
C598        C  0.52700787  0.17261633  0.57411425    -0.17000
H599        H  0.97781519  0.16853140  0.57531332     0.05600
H600        H  0.70252506  0.18746144  0.57306835     0.05600
C601        C  0.82206471  0.38134277  0.61876704     0.03600
C602        C  0.82943476  0.44702142  0.61614862     0.03500
C603        C  0.83031990  0.47519084  0.57050930    -0.17000
C604        C  0.81684470  0.43932740  0.52589199     0.03600
C605        C  0.80986504  0.37297601  0.52757665     0.03500
C606        C  0.81406096  0.34709325  0.57421601    -0.17000
H607        H  0.80980660  0.29817489  0.57606174     0.05600
H608        H  0.83801472  0.02494953  0.57059782     0.05600
O609        O  0.52636025  0.12155782  0.69805038    -0.71600
O610        O  0.87462899  0.47117975  0.76458164    -0.72600
O611        O  0.91976896  0.50991813  0.66734969    -0.61200
O612        O  0.48884390  0.07755028  0.79526951    -0.69700
O613        O  0.97233009  0.16211998  0.78236881    -0.69200
O614        O  0.83390517  0.02401451  0.68006736    -0.60500
O615        O  0.84285006  0.03778464  0.79208085    -0.73000
O616        O  0.95898090  0.15288611  0.67044829    -0.71800
Cu617      Cu  0.95355083  0.04288017  0.73134962     1.04600
Cu618      Cu  0.89826291  0.09794209  0.73121976     1.04300
C619        C  0.51348262  0.15125231  0.66515800     0.94600
C620        C  0.84484774  0.48380515  0.79761796     0.93700
C621        C  0.86105258  0.49650679  0.65638395     0.85800
C622        C  0.50149665  0.13571289  0.80625027     0.92100
O623        O  0.96557485  0.30849525  0.68042234    -0.71600
O624        O  0.82479617  0.30182245  0.78170583    -0.72600
O625        O  0.83681962  0.29979668  0.66940892    -0.61200
O626        O  0.95137630  0.30390189  0.79255060    -0.69700
O627        O  0.52102199  0.40367913  0.76316320    -0.69200
O628        O  0.86389015  0.39645022  0.70068011    -0.60500
O629        O  0.91323957  0.40278714  0.79788966    -0.73000
O630        O  0.47873150  0.40857409  0.66666855    -0.71800
Cu631      Cu  0.89063888  0.29528782  0.73105751     1.04600
Cu632      Cu  0.94577472  0.40613177  0.73207975     1.04300
C633        C  0.49347607  0.36486798  0.65614293     0.94600
C634        C  0.85286439  0.35747529  0.80689884     0.93700
C635        C  0.83768675  0.35558237  0.66549316     0.85800
C636        C  0.50679115  0.36185486  0.79730426     0.92100
C637        C  0.71139579  0.17726327  0.98600832     0.03600
C638        C  0.67541836  0.21201172  0.97769985     0.03500
C639        C  0.71266556  0.28326059  0.98302862    -0.17000
C640        C  0.78425712  0.32192103  0.97836891     0.03600
C641        C  0.82004622  0.28689349  0.98657574     0.03500
C642        C  0.78284895  0.21577776  0.98128976    -0.17000
H643        H  0.80959583  0.19036809  0.98786914     0.05600
H644        H  0.68594419  0.30869233  0.97641289     0.05600
C645        C  0.96238390  0.28422603  0.99058119     0.03600
C646        C  0.53024313  0.31976546  0.97034082     0.03500
C647        C  0.56152663  0.28227961  0.96118975    -0.17000
C648        C  0.53245825  0.21306156  0.97186979     0.03600
C649        C  0.96450325  0.17716298  0.99179236     0.03500
C650        C  0.93351285  0.21491409  0.00154763    -0.17000
H651        H  0.89425049  0.19502545  0.02925027     0.05600
H652        H  0.60164767  0.30246926  0.93414815     0.05600
C653        C  0.67595773  0.46570005  0.97259153     0.03600
C654        C  0.71292599  0.03464895  0.98988720     0.03500
C655        C  0.78304048  0.06424992  0.99880439    -0.17000
C656        C  0.81988366  0.03190358  0.99117144     0.03600
C657        C  0.78346797  0.46387182  0.97161889     0.03500
C658        C  0.71301411  0.43399619  0.96348082    -0.17000
H659        H  0.69104720  0.39278573  0.93761195     0.05600
H660        H  0.80440258  0.10554210  0.02455835     0.05600
C661        C  0.67777598  0.46689514  0.49229600     0.03600
C662        C  0.71478799  0.03481091  0.47247395     0.03500
C663        C  0.78494833  0.06444152  0.46352658    -0.17000
C664        C  0.82201928  0.03257298  0.47182579     0.03600
C665        C  0.78469703  0.46407885  0.48965343     0.03500
C666        C  0.71498168  0.43485309  0.49986009    -0.17000
H667        H  0.69444368  0.39414460  0.52607550     0.05600
H668        H  0.80629599  0.10539593  0.43751357     0.05600
C669        C  0.53333598  0.32167149  0.49067348     0.03600
C670        C  0.96539082  0.28511006  0.47073420     0.03500
C671        C  0.93598096  0.21554247  0.46120079    -0.17000
C672        C  0.96723730  0.17819359  0.47078939     0.03600
C673        C  0.53502018  0.21438929  0.49118359     0.03500
C674        C  0.56446997  0.28417577  0.50064551    -0.17000
H675        H  0.60441736  0.30492997  0.52776785     0.05600
H676        H  0.89546109  0.19475562  0.43446127     0.05600
C677        C  0.67735975  0.21223906  0.48567068     0.03600
C678        C  0.71318636  0.17688780  0.47824103     0.03500
C679        C  0.78472939  0.21488576  0.48411813    -0.17000
C680        C  0.82271501  0.28613788  0.47892735     0.03600
C681        C  0.78679659  0.32122763  0.48656644     0.03500
C682        C  0.71538941  0.28343668  0.48079088    -0.17000
H683        H  0.68907043  0.30944263  0.48689781     0.05600
H684        H  0.81125449  0.18903669  0.47805799     0.05600
C685        C  0.66959704  0.55285243  0.34655775     0.03600
C686        C  0.67693977  0.61854495  0.34412154     0.03500
C687        C  0.68422917  0.65222849  0.38883780    -0.17000
C688        C  0.68806065  0.62589755  0.43541137     0.03600
C689        C  0.68156071  0.55979647  0.43687525     0.03500
C690        C  0.66870880  0.52440378  0.39209800    -0.17000
H691        H  0.67054047  0.97886626  0.38790013     0.05600
H692        H  0.68838582  0.70111527  0.38719104     0.05600
C693        C  0.67857447  0.62328081  0.11706406     0.03600
C694        C  0.67369454  0.55856016  0.11893877     0.03500
C695        C  0.67382505  0.52820217  0.07417092    -0.17000
C696        C  0.68416956  0.56068584  0.02781205     0.03600
C697        C  0.69128001  0.62697364  0.02665375     0.03500
C698        C  0.68731408  0.65519710  0.07179314    -0.17000
H699        H  0.68945996  0.70322578  0.07191922     0.05600
H700        H  0.66309978  0.97466732  0.07102891     0.05600
O701        O  0.66550193  0.97475654  0.18072657    -0.71600
O702        O  0.52572801  0.83626410  0.28236880    -0.72600
O703        O  0.54012417  0.84611177  0.17035577    -0.61200
O704        O  0.65531576  0.96026697  0.29283806    -0.69700
O705        O  0.57925595  0.49140693  0.29521476    -0.69200
O706        O  0.97249335  0.87694994  0.19819586    -0.60500
O707        O  0.01032869  0.92147206  0.29558214    -0.73000
O708        O  0.62268211  0.52791358  0.19774917    -0.71800
Cu709      Cu  0.60045358  0.90052357  0.23156397     1.04600
Cu710      Cu  0.54565291  0.95573736  0.23143998     1.04300
C711        C  0.65274433  0.51519948  0.16504245     0.94600
C712        C  0.99693371  0.86299298  0.30635843     0.93700
C713        C  0.98567135  0.84784414  0.16499894     0.85800
C714        C  0.63748379  0.50354842  0.30631012     0.92100
C715        C  0.94267809  0.82806271  0.11862000     0.03600
C716        C  0.87774355  0.82321949  0.11692493     0.03500
C717        C  0.84557593  0.81475685  0.07178910    -0.17000
C718        C  0.87328682  0.81010229  0.02662513     0.03600
C719        C  0.93976991  0.81674215  0.02743286     0.03500
C720        C  0.97314096  0.82820710  0.07369530    -0.17000
H721        H  0.52248822  0.83262579  0.07504694     0.05600
H722        H  0.79737342  0.81272260  0.07214791     0.05600
C723        C  0.94694854  0.83107512  0.34642406     0.03600
C724        C  0.88082655  0.82342349  0.34387308     0.03500
C725        C  0.84604856  0.81473095  0.38848928    -0.17000
C726        C  0.87203973  0.81016173  0.43508620     0.03600
C727        C  0.93866964  0.81734724  0.43641090     0.03500
C728        C  0.97502809  0.83154030  0.39198544    -0.17000
H729        H  0.52580924  0.83901631  0.39231420     0.05600
H730        H  0.79679865  0.81025764  0.38675880     0.05600
C731        C  0.88566264  0.54351100  0.11656704     0.03600
C732        C  0.94785672  0.60857686  0.11932988     0.03500
C733        C  0.97636631  0.64293312  0.07499201    -0.17000
C734        C  0.94272832  0.61997222  0.02886553     0.03600
C735        C  0.87869667  0.55488518  0.02691558     0.03500
C736        C  0.85509509  0.51732621  0.07090140    -0.17000
H737        H  0.80402296  0.97455483  0.07582802     0.05600
H738        H  0.52389718  0.69162802  0.07688951     0.05600
C739        C  0.95443315  0.61166384  0.34666525     0.03600
C740        C  0.88879021  0.55008088  0.34406377     0.03500
C741        C  0.85422297  0.52232916  0.38850095    -0.17000
C742        C  0.87774448  0.55619737  0.43448522     0.03600
C743        C  0.94288164  0.62005092  0.43602614     0.03500
C744        C  0.98071955  0.64281756  0.39210933    -0.17000
H745        H  0.53070270  0.68911632  0.39252316     0.05600
H746        H  0.80941921  0.96887617  0.39206158     0.05600
O747        O  0.01961878  0.58837266  0.29587193    -0.71600
O748        O  0.58618689  0.59716154  0.16433775    -0.72600
O749        O  0.63752409  0.60466502  0.26147158    -0.61200
O750        O  0.97744519  0.59199589  0.19936066    -0.69700
O751        O  0.54522632  0.69292236  0.17077591    -0.69200
O752        O  0.66176920  0.69994639  0.29353720    -0.60500
O753        O  0.67400050  0.69801231  0.18098751    -0.73000
O754        O  0.53218818  0.68841777  0.28253502    -0.71800
Cu755      Cu  0.55379342  0.59227341  0.23037204     1.04600
Cu756      Cu  0.60718231  0.70302529  0.23184409     1.04300
C757        C  0.00470817  0.63200210  0.30669813     0.94600
C758        C  0.64648423  0.64252500  0.15563964     0.93700
C759        C  0.66207117  0.64477543  0.29722568     0.85800
C760        C  0.99038488  0.63444090  0.16589242     0.92100
O761        O  0.80215623  0.82656038  0.18078266    -0.71600
O762        O  0.80889251  0.96682597  0.28217692    -0.72600
O763        O  0.80380731  0.95242459  0.17017832    -0.61200
O764        O  0.79929007  0.83837344  0.29308319    -0.69700
O765        O  0.89628739  0.86489695  0.26192443    -0.67400
O766        O  0.90856493  0.47844518  0.16731016    -0.60500
O767        O  0.90489036  0.52094098  0.26377609    -0.73000
O768        O  0.90341961  0.91469376  0.16482229    -0.71800
Cu769      Cu  0.79529562  0.89206331  0.23148541     1.04600
Cu770      Cu  0.90669431  0.94682497  0.23055295     1.04300
C771        C  0.85815653  0.85457496  0.15576729     0.94600
C772        C  0.86251881  0.50770925  0.29751886     0.93700
C773        C  0.86485533  0.49339956  0.15654882     0.85800
C774        C  0.85518461  0.83905496  0.29709960     0.92100
C775        C  0.61653233  0.67525474  0.84441736     0.03600
C776        C  0.55061449  0.66813574  0.84710201     0.03500
C777        C  0.52232162  0.66681711  0.89282006    -0.17000
C778        C  0.55863889  0.68047819  0.93730789     0.03600
C779        C  0.62530588  0.68768358  0.93554548     0.03500
C780        C  0.65109847  0.68325895  0.88890952    -0.17000
H781        H  0.70021543  0.68745920  0.88700257     0.05600
H782        H  0.97158489  0.65943944  0.89325891     0.05600
C783        C  0.54916586  0.88835076  0.84372709     0.03600
C784        C  0.61127452  0.95352269  0.84634580     0.03500
C785        C  0.64167010  0.97987600  0.89183946    -0.17000
C786        C  0.61830285  0.94246597  0.93579585     0.03600
C787        C  0.55491314  0.87700152  0.93428211     0.03500
C788        C  0.52119399  0.85352092  0.88816320    -0.17000
H789        H  0.97404309  0.80450567  0.88641508     0.05600
H790        H  0.68763058  0.52986973  0.89278378     0.05600
C791        C  0.82366226  0.94026168  0.84364783     0.03600
C792        C  0.81896638  0.87562915  0.84522488     0.03500
C793        C  0.81112610  0.84395506  0.89035225    -0.17000
C794        C  0.80758158  0.87198670  0.93566100     0.03600
C795        C  0.81339391  0.93783991  0.93501746     0.03500
C796        C  0.82325909  0.97035822  0.88862929    -0.17000
H797        H  0.82719838  0.51923434  0.88714377     0.05600
H798        H  0.80924175  0.79603480  0.88993899     0.05600
C799        C  0.61008209  0.94931307  0.61903431     0.03600
C800        C  0.54434034  0.88783603  0.61644720     0.03500
C801        C  0.51748386  0.85762880  0.57096527    -0.17000
C802        C  0.55512299  0.88019570  0.52700707     0.03600
C803        C  0.62096643  0.94349592  0.52835981     0.03500
C804        C  0.64481124  0.97708849  0.57450345    -0.17000
H805        H  0.69238715  0.52390137  0.57648851     0.05600
H806        H  0.96713359  0.81176172  0.57059475     0.05600
O807        O  0.59362941  0.97750396  0.69960306    -0.71600
O808        O  0.60097425  0.63342029  0.76257364    -0.72600
O809        O  0.59382192  0.58448895  0.66519955    -0.61200
O810        O  0.58853477  0.01902944  0.79604097    -0.69700
O811        O  0.68789809  0.53151390  0.78273662    -0.69200
O812        O  0.69564773  0.67193269  0.68120032    -0.60500
O813        O  0.69794782  0.65997095  0.79366114    -0.73000
O814        O  0.69292931  0.54532873  0.67072674    -0.71800
Cu815      Cu  0.59008219  0.55161401  0.73074209     1.04600
Cu816      Cu  0.70170659  0.60606901  0.73201047     1.04300
C817        C  0.63608682  0.99137241  0.66576575     0.94600
C818        C  0.64209445  0.65935018  0.79769835     0.93700
C819        C  0.63967541  0.64436258  0.65608318     0.85800
C820        C  0.63217158  0.00394428  0.80658802     0.92100
C821        C  0.55612853  0.67234334  0.61911810     0.03600
C822        C  0.62059168  0.67610565  0.61718637     0.03500
C823        C  0.65235079  0.68395570  0.57185393    -0.17000
C824        C  0.62465277  0.68909320  0.52677064     0.03600
C825        C  0.55860469  0.68331001  0.52803916     0.03500
C826        C  0.52574938  0.67265841  0.57435065    -0.17000
H827        H  0.97671836  0.66892279  0.57584123     0.05600
H828        H  0.70016177  0.68520399  0.57196393     0.05600
C829        C  0.82089648  0.87970280  0.61831009     0.03600
C830        C  0.82869602  0.94558916  0.61604052     0.03500
C831        C  0.83014906  0.97424566  0.57063572    -0.17000
C832        C  0.81650046  0.93866578  0.52596493     0.03600
C833        C  0.80834417  0.87199050  0.52700175     0.03500
C834        C  0.81225480  0.84541670  0.57349666    -0.17000
H835        H  0.80738908  0.79621483  0.57496714     0.05600
H836        H  0.83759821  0.52564220  0.57024276     0.05600
O837        O  0.52661213  0.62439807  0.69889452    -0.71600
O838        O  0.87418586  0.97058505  0.76461516    -0.72600
O839        O  0.91895903  0.00769169  0.66740098    -0.61200
O840        O  0.48771823  0.57832315  0.79599937    -0.69700
O841        O  0.97202481  0.66328969  0.78287107    -0.69200
O842        O  0.83386404  0.52480712  0.68038452    -0.60500
O843        O  0.84293422  0.53796082  0.79239530    -0.73000
O844        O  0.95831042  0.65397127  0.67060873    -0.71800
Cu845      Cu  0.95370797  0.54452753  0.73166931     1.04600
Cu846      Cu  0.89793794  0.59877332  0.73158909     1.04300
C847        C  0.51313754  0.65288192  0.66548292     0.94600
C848        C  0.84443374  0.98351823  0.79749326     0.93700
C849        C  0.86052666  0.99495573  0.65632487     0.85800
C850        C  0.50080224  0.63660102  0.80692262     0.92100
O851        O  0.96623237  0.81046803  0.68035230    -0.71600
O852        O  0.82342397  0.80078312  0.78123500    -0.72600
O853        O  0.83658156  0.79872607  0.66883236    -0.61200
O854        O  0.95158171  0.80476165  0.79213768    -0.69700
O855        O  0.51999146  0.90568970  0.76377528    -0.69200
O856        O  0.86111904  0.89424331  0.70075506    -0.60500
O857        O  0.91134082  0.90159057  0.79804551    -0.73000
O858        O  0.47903161  0.91064297  0.66726258    -0.71800
Cu859      Cu  0.89055779  0.79548323  0.73073066     1.04600
Cu860      Cu  0.94429310  0.90630514  0.73238303     1.04300
C861        C  0.49403247  0.86713736  0.65643507     0.94600
C862        C  0.85093205  0.85635923  0.80654122     0.93700
C863        C  0.83633448  0.85388646  0.66510008     0.85800
C864        C  0.50658894  0.86299965  0.79718840     0.92100
C865        C  0.71357405  0.67670362  0.98417578     0.03600
C866        C  0.67739415  0.71146432  0.97649952     0.03500
C867        C  0.71427427  0.78254899  0.98239440    -0.17000
C868        C  0.78575433  0.82150439  0.97744811     0.03600
C869        C  0.82231035  0.78682444  0.98480868     0.03500
C870        C  0.78515536  0.71557475  0.97904775    -0.17000
H871        H  0.81207881  0.69014393  0.98512740     0.05600
H872        H  0.68731891  0.80792873  0.97640742     0.05600
C873        C  0.96471230  0.78469862  0.99155466     0.03600
C874        C  0.53212200  0.82008074  0.97075001     0.03500
C875        C  0.56336451  0.78241858  0.96189213    -0.17000
C876        C  0.53451017  0.71327135  0.97320891     0.03600
C877        C  0.96663933  0.67784484  0.99332283     0.03500
C878        C  0.93555856  0.71548660  0.00238725    -0.17000
H879        H  0.89541743  0.69535424  0.02943959     0.05600
H880        H  0.60275091  0.80196066  0.93432727     0.05600
C881        C  0.67601811  0.96591459  0.97183759     0.03600
C882        C  0.71366868  0.53417595  0.99120167     0.03500
C883        C  0.78413489  0.56409080  0.99919907    -0.17000
C884        C  0.82104904  0.53217932  0.99045973     0.03600
C885        C  0.78325396  0.96361054  0.97218315     0.03500
C886        C  0.71296987  0.93380874  0.96369814    -0.17000
H887        H  0.69126438  0.89239853  0.93810771     0.05600
H888        H  0.80620002  0.60562871  0.02474459     0.05600
C889        C  0.67809802  0.96670786  0.49166770     0.03600
C890        C  0.71358556  0.53511905  0.47329919     0.03500
C891        C  0.78338290  0.56444238  0.46324698    -0.17000
C892        C  0.82052677  0.53236078  0.47078192     0.03600
C893        C  0.78507772  0.96407289  0.49014423     0.03500
C894        C  0.71512305  0.93468186  0.49969855    -0.17000
H895        H  0.69409955  0.89381358  0.52582899     0.05600
H896        H  0.80416428  0.60525313  0.43708996     0.05600
C897        C  0.53165234  0.82162511  0.49183828     0.03600
C898        C  0.96344132  0.78518037  0.47213309     0.03500
C899        C  0.93420564  0.71556030  0.46187839    -0.17000
C900        C  0.96527245  0.67798111  0.47180563     0.03600
C901        C  0.53309286  0.71446672  0.49207019     0.03500
C902        C  0.56268842  0.78416534  0.50167863    -0.17000
H903        H  0.60311424  0.80512389  0.52848080     0.05600
H904        H  0.89444805  0.69510237  0.43456160     0.05600
C905        C  0.67524098  0.71226745  0.48460092     0.03600
C906        C  0.71123596  0.67733043  0.47655962     0.03500
C907        C  0.78277611  0.71535731  0.48146667    -0.17000
C908        C  0.82049882  0.78644735  0.47656012     0.03600
C909        C  0.78485834  0.82141244  0.48504736     0.03500
C910        C  0.71326006  0.78350869  0.47979478    -0.17000
H911        H  0.68689878  0.80931949  0.48636290     0.05600
H912        H  0.80921012  0.68965265  0.47485563     0.05600
loop_ 
_geom_bond_atom_site_label_1 
_geom_bond_atom_site_label_2 
_geom_bond_distance 
_geom_bond_site_symmetry_2 
_ccdc_geom_bond_type 
C1            C2   1.440       .  A
C1            C6   1.401       .  A
C1           C30   1.511       .  S
C2            C3   1.387       .  A
C2           C75   1.475       .  S
C3            C4   1.407       .  A
C3            H8   1.085       .  S
C4            C5   1.455       .  A
C4          C222   1.510       .  S
C5            C6   1.418       .  A
C5          C206   1.504       .  S
C6          H235   1.086   1_545  S
H7          C234   1.088       .  S
C9           C10   1.439       .  A
C9           C14   1.402       .  A
C9           C74   1.517       .  S
C10          C11   1.387       .  A
C10          C27   1.467       .  S
C11          C12   1.402       .  A
C11         H244   1.088   1_545  S
C12          C13   1.455       .  A
C12         C198   1.503   1_554  S
C13          C14   1.421       .  A
C13         C181   1.512   1_554  S
C14          H15   1.083       .  S
H16         C239   1.086       .  S
O17         Cu25   2.102       .  S
O17         C255   1.282       .  A
O18         Cu25   2.100       .  S
O18         C484   1.282   1_455  A
O19         Cu25   2.088       .  S
O19         C485   1.290   1_455  A
O20         Cu25   2.090       .  S
O20         C258   1.290       .  A
O21        Cu254   1.940   1_545  S
O21          C30   1.249       .  A
O22        Cu482   1.899       .  S
O22          C29   1.253       .  A
O23        Cu482   1.931       .  S
O23          C28   1.249       .  A
O24        Cu254   1.899       .  S
O24          C27   1.252   1_565  A
Cu25        Cu26   2.223       .  S
Cu26        O249   1.898       .  S
Cu26        O478   1.899       .  S
Cu26        O479   1.931   1_455  S
Cu26        O252   1.933       .  S
C27         O245   1.291   1_545  A
C28          C39   1.511       .  S
C28         O474   1.282       .  A
C29          C31   1.464       .  S
C29         O475   1.290       .  A
C30         O248   1.281   1_545  A
C31          C32   1.438       .  A
C31          C36   1.390       .  A
C32          C33   1.400       .  A
C32          C87   1.519       .  S
C33          C34   1.421       .  A
C33          H38   1.083       .  S
C34          C35   1.454       .  A
C34         C185   1.506   1_554  S
C35          C36   1.401       .  A
C35         C189   1.507   1_554  S
C36         H493   1.088       .  S
H37         C492   1.088   1_455  S
C39          C40   1.440       .  A
C39          C44   1.399       .  A
C40          C41   1.388       .  A
C40          C90   1.474       .  S
C41          C42   1.409       .  A
C41          H46   1.085       .  S
C42          C43   1.454       .  A
C42         C224   1.512       .  S
C43          C44   1.415       .  A
C43         C214   1.500       .  S
C44         H501   1.086       .  S
H45         C500   1.086   1_455  S
C47          C48   1.437       .  A
C47          C52   1.403       .  A
C47          C89   1.511       .  S
C48          C49   1.388       .  A
C48          C76   1.471       .  S
C49          C50   1.401       .  A
C49         H510   1.087       .  S
C50          C51   1.453       .  A
C50         C193   1.500   1_554  S
C51          C52   1.418       .  A
C51         C200   1.504   1_554  S
C52         H281   1.085   1_545  S
H53         C280   1.087       .  S
H54         C505   1.087   1_455  S
C55          C56   1.437       .  A
C55          C60   1.401       .  A
C55          C73   1.510       .  S
C56          C57   1.388       .  A
C56          C88   1.470   1_545  S
C57          C58   1.402       .  A
C57         H290   1.087   1_545  S
C58          C59   1.455       .  A
C58         C208   1.502       .  S
C59          C60   1.417       .  A
C59         C216   1.504       .  S
C60         H517   1.085       .  S
H61         C516   1.085   1_455  S
H62         C285   1.086       .  S
O63        Cu527   1.944       .  S
O63          C73   1.251       .  A
O64         Cu71   1.971       .  S
O64          C74   1.251       .  A
O65         Cu71   1.913       .  S
O65          C75   1.250       .  A
O66        Cu527   1.916       .  S
O66          C76   1.255       .  A
O67         Cu72   2.094       .  S
O67         C532   1.291       .  A
O68         Cu72   2.109       .  S
O68          C75   1.291       .  A
O69         Cu72   2.108       .  S
O69          C74   1.282       .  A
O70         Cu72   2.107       .  S
O70         C529   1.284   1_455  A
Cu71        O519   1.944   1_455  S
Cu71        O522   1.916       .  S
Cu71        Cu72   2.189       .  S
C73         O526   1.284       .  A
C76         O523   1.291       .  A
O77         Cu85   2.111       .  S
O77          C87   1.282       .  A
O78         Cu85   2.113       .  S
O78         C316   1.286       .  A
O79         Cu85   2.092       .  S
O79         C317   1.291       .  A
O80         Cu85   2.111       .  S
O80          C90   1.290       .  A
O81         Cu86   1.914       .  S
O81          C90   1.249       .  A
O82        Cu314   1.948   1_545  S
O82          C89   1.252       .  A
O83        Cu314   1.912       .  S
O83          C88   1.254       .  A
O84         Cu86   1.980       .  S
O84          C87   1.251       .  A
Cu85        Cu86   2.183       .  S
Cu86        O310   1.917       .  S
Cu86        O311   1.945       .  S
C88         O306   1.291       .  A
C89         O307   1.284   1_545  A
C91          C92   1.438       .  A
C91          C96   1.402       .  A
C91         C134   1.519       .  S
C92          C93   1.388       .  A
C92         C166   1.465       .  S
C93          C94   1.400       .  A
C93         H554   1.088   1_455  S
C94          C95   1.453       .  A
C94         C192   1.502       .  S
C95          C96   1.423       .  A
C95         C182   1.510       .  S
C96          H97   1.083       .  S
H98         C549   1.088       .  S
C99         C100   1.437       .  A
C99         C104   1.398       .  A
C99         C180   1.513       .  S
C100        C101   1.391       .  A
C100        C136   1.469       .  S
C101        C102   1.403       .  A
C101        H334   1.087       .  S
C102        C103   1.457       .  A
C102        C197   1.509       .  S
C103        C104   1.417       .  A
C103        C190   1.499       .  S
C104        H561   1.086   1_455  S
H105        C560   1.086       .  S
H106        C329   1.087   1_545  S
C107        C108   1.439       .  A
C107        C112   1.399       .  A
C107        C164   1.512       .  S
C108        C109   1.390       .  A
C108        C178   1.473       .  S
C109        C110   1.408       .  A
C109        H114   1.085       .  S
C110        C111   1.453       .  A
C110        C184   1.513       .  S
C111        C112   1.417       .  A
C111        C201   1.499       .  S
C112        H341   1.086       .  S
H113        C340   1.086   1_545  S
C115        C116   1.438       .  A
C115        C120   1.399       .  A
C115        C133   1.513       .  S
C116        C117   1.390       .  A
C116        C177   1.469   1_455  S
C117        C118   1.403       .  A
C117        H578   1.087   1_455  S
C118        C119   1.453       .  A
C118        C213   1.504       .  S
C119        C120   1.416       .  A
C119        C205   1.499       .  S
C120        H349   1.085       .  S
H121        C348   1.085   1_545  S
H122        C573   1.087       .  S
O123       Cu359   1.943       .  S
O123        C133   1.251       .  A
O124       Cu131   1.976       .  S
O124        C134   1.252       .  A
O125       Cu131   1.912       .  S
O125        C135   1.249       .  A
O126       Cu359   1.915       .  S
O126        C136   1.255       .  A
O127       Cu132   2.093       .  S
O127        C364   1.291       .  A
O128       Cu132   2.110       .  S
O128        C135   1.291       .  A
O129       Cu132   2.112       .  S
O129        C134   1.282       .  A
O130       Cu132   2.113       .  S
O130        C361   1.285   1_545  A
Cu131       O351   1.948   1_545  S
Cu131       O354   1.914       .  S
Cu131      Cu132   2.183       .  S
C133        O358   1.285       .  A
C135        C138   1.474       .  S
C136        O355   1.291       .  A
C137        C138   1.440       .  A
C137        C142   1.402       .  A
C137        C163   1.511       .  S
C138        C139   1.385       .  A
C139        C140   1.407       .  A
C139        H144   1.085       .  S
C140        C141   1.454       .  A
C140        C221   1.508       .  S
C141        C142   1.417       .  A
C141        C217   1.506       .  S
C142        H599   1.086   1_455  S
H143        C598   1.086       .  S
C145        C146   1.438       .  A
C145        C150   1.399       .  A
C145        C179   1.517       .  S
C146        C147   1.390       .  A
C146        C165   1.466       .  S
C147        C148   1.403       .  A
C147        H380   1.088       .  S
C148        C149   1.456       .  A
C148        C209   1.508       .  S
C149        C150   1.420       .  A
C149        C225   1.508       .  S
C150        H151   1.083       .  S
H152        C375   1.088   1_545  S
O153       Cu617   1.935   1_455  S
O153        C163   1.250       .  A
O154       Cu389   1.938       .  S
O154        C164   1.249       .  A
O155       Cu389   1.902       .  S
O155        C165   1.253       .  A
O156       Cu617   1.898       .  S
O156        C166   1.253   1_655  A
O157       Cu162   2.090       .  S
O157        C622   1.291       .  A
O158       Cu162   2.092       .  S
O158        C393   1.291   1_545  A
O159       Cu162   2.102       .  S
O159        C392   1.282   1_545  A
O160       Cu162   2.101       .  S
O160        C619   1.282       .  A
Cu161       O609   1.935       .  S
Cu161       O382   1.936   1_545  S
Cu161       O383   1.898       .  S
Cu161       O612   1.898       .  S
Cu161      Cu162   2.219       .  S
C163        O616   1.282   1_455  A
C164        O387   1.282       .  A
C165        O386   1.291       .  A
C166        O613   1.291   1_455  A
O167       Cu175   2.095       .  S
O167        C633   1.291       .  A
O168       Cu175   2.105       .  S
O168        C178   1.290       .  A
O169       Cu175   2.110       .  S
O169        C179   1.283       .  A
O170       Cu175   2.112       .  S
O170        C636   1.285       .  A
O171       Cu632   1.951   1_455  S
O171        C180   1.250       .  A
O172       Cu176   1.969       .  S
O172        C179   1.250       .  A
O173       Cu176   1.916       .  S
O173        C178   1.251       .  A
O174       Cu632   1.913       .  S
O174        C177   1.254       .  A
Cu175      Cu176   2.185       .  S
Cu176       O627   1.951       .  S
Cu176       O630   1.913       .  S
C177        O623   1.291       .  A
C180        O626   1.285   1_455  A
C181        C182   1.440       .  A
C181        C186   1.408       .  A
C182        C183   1.411       .  A
C183        C184   1.410       .  A
C183        H188   1.064       .  S
C184        C185   1.441       .  A
C185        C186   1.408       .  A
C186        H187   1.064       .  S
C189        C194   1.408   1_556  A
C189        C646   1.440       .  A
C190        C191   1.407       .  A
C190        C645   1.440   1_455  A
C191        C192   1.404       .  A
C191        H196   1.075       .  S
C192        C649   1.438   1_455  A
C193        C194   1.410   1_556  A
C193        C648   1.438       .  A
C194        H195   1.075       .  S
C197        C202   1.405       .  A
C197        C426   1.440       .  A
C198        C199   1.405       .  A
C198        C425   1.439   1_545  A
C199        C200   1.407       .  A
C199        H204   1.070   1_556  S
C200        C429   1.440   1_545  A
C201        C202   1.408       .  A
C201        C428   1.439       .  A
C202        H203   1.071       .  S
C205        C210   1.408       .  A
C205        C434   1.439       .  A
C206        C207   1.406       .  A
C206        C433   1.439   1_545  A
C207        C208   1.405       .  A
C207        H212   1.071       .  S
C208        C437   1.438   1_545  A
C209        C210   1.405       .  A
C209        C436   1.439       .  A
C210        H211   1.071       .  S
C213        C218   1.408       .  A
C213        C670   1.437   1_455  A
C214        C215   1.404       .  A
C214        C669   1.437       .  A
C215        C216   1.406       .  A
C215        H220   1.074       .  S
C216        C673   1.439       .  A
C217        C218   1.408       .  A
C217        C672   1.439   1_455  A
C218        H219   1.073       .  S
C221        C222   1.445       .  A
C221        C226   1.409       .  A
C222        C223   1.412       .  A
C223        C224   1.411       .  A
C223        H228   1.066       .  S
C224        C225   1.443       .  A
C225        C226   1.409       .  A
C226        H227   1.065       .  S
C229        C230   1.438       .  A
C229        C234   1.391       .  A
C229        C258   1.465       .  S
C230        C231   1.399       .  A
C230        C303   1.519       .  S
C231        C232   1.421       .  A
C231        H236   1.083       .  S
C232        C233   1.455       .  A
C232        C450   1.506       .  S
C233        C234   1.402       .  A
C233        C434   1.508       .  S
C237        C238   1.441       .  A
C237        C242   1.388       .  A
C237        C302   1.474       .  S
C238        C239   1.399       .  A
C238        C255   1.512       .  S
C239        C240   1.416       .  A
C240        C241   1.453       .  A
C240        C426   1.499   1_554  S
C241        C242   1.408       .  A
C241        C409   1.513   1_554  S
C242        H243   1.085       .  S
O245       Cu253   2.096       .  S
O246       Cu253   2.094       .  S
O246        C712   1.291   1_455  A
O247       Cu253   2.102       .  S
O247        C713   1.282   1_455  A
O248       Cu253   2.102       .  S
O249        C258   1.253       .  A
O250       Cu710   1.937       .  S
O250        C257   1.250       .  A
O251       Cu710   1.904       .  S
O251        C256   1.253       .  A
O252        C255   1.248       .  A
Cu253      Cu254   2.212       .  S
Cu254       O706   1.937   1_455  S
Cu254       O707   1.904       .  S
C256        C267   1.468       .  S
C256        O702   1.291       .  A
C257        C259   1.511       .  S
C257        O703   1.282       .  A
C259        C260   1.439       .  A
C259        C264   1.401       .  A
C260        C261   1.386       .  A
C260        C315   1.473       .  S
C261        C262   1.407       .  A
C261        H266   1.085       .  S
C262        C263   1.455       .  A
C262        C413   1.510   1_554  S
C263        C264   1.417       .  A
C263        C417   1.504   1_554  S
C264        H721   1.086       .  S
H265        C720   1.086   1_455  S
C267        C268   1.438       .  A
C267        C272   1.388       .  A
C268        C269   1.403       .  A
C268        C318   1.516       .  S
C269        C270   1.421       .  A
C269        H274   1.083       .  S
C270        C271   1.453       .  A
C270        C452   1.512       .  S
C271        C272   1.401       .  A
C271        C442   1.500       .  S
C272        H729   1.088       .  S
H273        C728   1.088   1_455  S
C275        C276   1.437       .  A
C275        C280   1.392       .  A
C275        C317   1.470       .  S
C276        C277   1.398       .  A
C276        C304   1.512       .  S
C277        C278   1.416       .  A
C277        H738   1.086       .  S
C278        C279   1.456       .  A
C278        C421   1.499   1_554  S
C279        C280   1.404       .  A
C279        C428   1.509   1_554  S
H282        C733   1.086   1_455  S
C283        C284   1.437       .  A
C283        C288   1.391       .  A
C283        C301   1.469       .  S
C284        C285   1.398       .  A
C284        C316   1.512       .  S
C285        C286   1.416       .  A
C286        C287   1.454       .  A
C286        C436   1.497       .  S
C287        C288   1.402       .  A
C287        C444   1.507       .  S
C288        H745   1.087       .  S
H289        C744   1.087   1_455  S
O291       Cu755   1.920       .  S
O291        C301   1.257       .  A
O292       Cu299   1.915       .  S
O292        C302   1.249       .  A
O293       Cu299   1.980       .  S
O293        C303   1.250       .  A
O294       Cu755   1.942       .  S
O294        C304   1.251       .  A
O295       Cu300   2.112       .  S
O295        C760   1.286   1_455  A
O296       Cu300   2.110       .  S
O296        C303   1.282       .  A
O297       Cu300   2.110       .  S
O297        C302   1.290       .  A
O298       Cu300   2.088       .  S
O298        C757   1.291       .  A
Cu299       O747   1.920       .  S
Cu299       O750   1.942   1_455  S
Cu299      Cu300   2.185       .  S
C301        O754   1.291       .  A
C304        O751   1.286       .  A
O305       Cu313   2.107       .  S
O305        C315   1.291       .  A
O306       Cu313   2.096       .  S
O307       Cu313   2.109       .  S
O308       Cu313   2.107       .  S
O308        C318   1.282       .  A
O309       Cu314   1.972       .  S
O309        C318   1.251       .  A
O310        C317   1.256       .  A
O311        C316   1.251       .  A
O312       Cu314   1.911       .  S
O312        C315   1.250       .  A
Cu313      Cu314   2.186       .  S
C319        C320   1.439       .  A
C319        C324   1.399       .  A
C319        C362   1.517       .  S
C320        C321   1.390       .  A
C320        C394   1.466       .  S
C321        C322   1.402       .  A
C321        H782   1.088   1_455  S
C322        C323   1.454       .  A
C322        C420   1.504       .  S
C323        C324   1.420       .  A
C323        C410   1.508       .  S
C324        H325   1.083       .  S
H326        C777   1.088       .  S
C327        C328   1.437       .  A
C327        C332   1.402       .  A
C327        C408   1.511       .  S
C328        C329   1.388       .  A
C328        C364   1.470   1_565  S
C329        C330   1.401       .  A
C330        C331   1.453       .  A
C330        C425   1.501       .  S
C331        C332   1.417       .  A
C331        C418   1.503       .  S
C332        H789   1.085   1_455  S
H333        C788   1.085       .  S
C335        C336   1.440       .  A
C335        C340   1.403       .  A
C335        C392   1.512       .  S
C336        C337   1.385       .  A
C336        C406   1.474       .  S
C337        C338   1.407       .  A
C337        H342   1.085       .  S
C338        C339   1.456       .  A
C338        C412   1.509       .  S
C339        C340   1.418       .  A
C339        C429   1.508       .  S
C343        C344   1.437       .  A
C343        C348   1.402       .  A
C343        C361   1.513       .  S
C344        C345   1.389       .  A
C344        C405   1.470   1_455  S
C345        C346   1.401       .  A
C345        H806   1.087   1_455  S
C346        C347   1.456       .  A
C346        C441   1.504       .  S
C347        C348   1.419       .  A
C347        C433   1.505       .  S
H350        C801   1.087       .  S
O351        C361   1.252       .  A
O352       Cu359   1.969       .  S
O352        C362   1.250       .  A
O353       Cu359   1.912       .  S
O353        C363   1.250       .  A
O354        C364   1.255       .  A
O355       Cu360   2.093       .  S
O356       Cu360   2.108       .  S
O356        C363   1.291       .  A
O357       Cu360   2.108       .  S
O357        C362   1.282       .  A
O358       Cu360   2.111       .  S
Cu359      Cu360   2.191       .  S
C363        C366   1.474       .  S
C365        C366   1.440       .  A
C365        C370   1.399       .  A
C365        C391   1.513       .  S
C366        C367   1.389       .  A
C367        C368   1.408       .  A
C367        H372   1.085       .  S
C368        C369   1.454       .  A
C368        C449   1.514       .  S
C369        C370   1.416       .  A
C369        C445   1.500       .  S
C370        H827   1.086   1_455  S
H371        C826   1.086       .  S
C373        C374   1.438       .  A
C373        C378   1.403       .  A
C373        C407   1.517       .  S
C374        C375   1.387       .  A
C374        C393   1.466       .  S
C375        C376   1.400       .  A
C376        C377   1.452       .  A
C376        C437   1.499       .  S
C377        C378   1.422       .  A
C377        C453   1.511       .  S
C378        H379   1.083       .  S
O381       Cu845   1.942   1_455  S
O381        C391   1.248       .  A
O382        C392   1.249       .  A
O383        C393   1.253   1_545  A
O384       Cu845   1.899       .  S
O384        C394   1.252   1_655  A
O385       Cu390   2.095       .  S
O385        C850   1.291       .  A
O386       Cu390   2.091       .  S
O387       Cu390   2.103       .  S
O388       Cu390   2.104       .  S
O388        C847   1.282       .  A
Cu389       O837   1.942       .  S
Cu389       O840   1.899       .  S
Cu389      Cu390   2.212       .  S
C391        O844   1.282   1_455  A
C394        O841   1.291   1_455  A
O395       Cu403   2.092       .  S
O395        C861   1.291       .  A
O396       Cu403   2.112       .  S
O396        C406   1.291       .  A
O397       Cu403   2.107       .  S
O397        C407   1.281       .  A
O398       Cu403   2.110       .  S
O398        C864   1.285       .  A
O399       Cu860   1.943   1_455  S
O399        C408   1.252       .  A
O400       Cu404   1.977       .  S
O400        C407   1.252       .  A
O401       Cu404   1.911       .  S
O401        C406   1.249       .  A
O402       Cu860   1.914       .  S
O402        C405   1.256       .  A
Cu403      Cu404   2.186       .  S
Cu404       O855   1.943       .  S
Cu404       O858   1.914       .  S
C405        O851   1.291       .  A
C408        O854   1.285   1_455  A
C409        C410   1.442       .  A
C409        C414   1.412       .  A
C410        C411   1.409       .  A
C411        C412   1.409       .  A
C411        H416   1.065       .  S
C412        C413   1.446       .  A
C413        C414   1.412       .  A
C414        H415   1.066       .  S
C417        C874   1.437       .  A
C417        C422   1.405   1_556  A
C418        C873   1.437   1_455  A
C418        C419   1.408       .  A
C419        C420   1.407       .  A
C419        H424   1.074       .  S
C420        C877   1.438   1_455  A
C421        C876   1.438       .  A
C421        C422   1.406   1_556  A
C422        H423   1.075       .  S
C425        C430   1.407       .  A
C426        C427   1.407       .  A
C427        C428   1.405       .  A
C427        H432   1.070   1_556  S
C429        C430   1.406       .  A
C430        H431   1.069       .  S
C433        C438   1.406       .  A
C434        C435   1.405       .  A
C435        C436   1.408       .  A
C435        H440   1.071       .  S
C437        C438   1.406       .  A
C438        H439   1.072       .  S
C441        C898   1.440   1_455  A
C441        C446   1.405       .  A
C442        C897   1.440       .  A
C442        C443   1.409       .  A
C443        C444   1.409       .  A
C443        H448   1.073       .  S
C444        C901   1.438       .  A
C445        C900   1.438   1_455  A
C445        C446   1.406       .  A
C446        H447   1.074       .  S
C449        C450   1.443       .  A
C449        C454   1.410       .  A
C450        C451   1.410       .  A
C451        C452   1.407       .  A
C451        H456   1.064       .  S
C452        C453   1.438       .  A
C453        C454   1.412       .  A
C454        H455   1.064       .  S
C457        C458   1.440       .  A
C457        C462   1.401       .  A
C457        C486   1.511       .  S
C458        C459   1.387       .  A
C458        C531   1.475       .  S
C459        C460   1.407       .  A
C459        H464   1.085       .  S
C460        C461   1.455       .  A
C460        C678   1.510       .  S
C461        C462   1.418       .  A
C461        C662   1.504       .  S
C462        H691   1.086   1_545  S
H463        C690   1.087       .  S
C465        C466   1.439       .  A
C465        C470   1.402       .  A
C465        C530   1.517       .  S
C466        C467   1.387       .  A
C466        C483   1.467       .  S
C467        C468   1.402       .  A
C467        H700   1.088   1_545  S
C468        C469   1.455       .  A
C468        C654   1.503   1_554  S
C469        C470   1.421       .  A
C469        C637   1.512   1_554  S
C470        H471   1.083       .  S
H472        C695   1.086       .  S
O473       Cu481   2.102       .  S
O473        C711   1.282       .  A
O474       Cu481   2.100       .  S
O475       Cu481   2.088       .  S
O476       Cu481   2.090       .  S
O476        C714   1.290       .  A
O477       Cu710   1.940   1_545  S
O477        C486   1.249       .  A
O478        C485   1.253   1_455  A
O479        C484   1.249       .  A
O480       Cu710   1.899       .  S
O480        C483   1.252   1_565  A
Cu481      Cu482   2.223       .  S
Cu482       O705   1.898       .  S
Cu482       O708   1.933       .  S
C483        O701   1.291   1_545  A
C484        C495   1.511       .  S
C485        C487   1.464       .  S
C486        O704   1.281   1_545  A
C487        C488   1.438       .  A
C487        C492   1.390       .  A
C488        C489   1.400       .  A
C488        C543   1.519       .  S
C489        C490   1.421       .  A
C489        H494   1.083       .  S
C490        C491   1.454       .  A
C490        C641   1.506   1_554  S
C491        C492   1.401       .  A
C491        C645   1.507   1_554  S
C495        C496   1.440       .  A
C495        C500   1.399       .  A
C496        C497   1.388       .  A
C496        C546   1.474       .  S
C497        C498   1.409       .  A
C497        H502   1.085       .  S
C498        C499   1.454       .  A
C498        C680   1.512       .  S
C499        C500   1.415       .  A
C499        C670   1.500       .  S
C503        C504   1.437       .  A
C503        C508   1.403       .  A
C503        C545   1.511       .  S
C504        C505   1.388       .  A
C504        C532   1.471   1_655  S
C505        C506   1.401       .  A
C506        C507   1.453       .  A
C506        C649   1.500   1_554  S
C507        C508   1.418       .  A
C507        C656   1.504   1_554  S
C508        H737   1.085   1_545  S
H509        C736   1.087       .  S
C511        C512   1.437       .  A
C511        C516   1.401       .  A
C511        C529   1.510       .  S
C512        C513   1.388       .  A
C512        C544   1.470   1_545  S
C513        C514   1.402       .  A
C513        H746   1.087   1_545  S
C514        C515   1.455       .  A
C514        C664   1.502       .  S
C515        C516   1.417       .  A
C515        C672   1.504       .  S
H518        C741   1.086       .  S
O519        C529   1.251       .  A
O520       Cu527   1.971       .  S
O520        C530   1.251       .  A
O521       Cu527   1.913       .  S
O521        C531   1.250       .  A
O522        C532   1.255       .  A
O523       Cu528   2.094       .  S
O524       Cu528   2.109       .  S
O524        C531   1.291       .  A
O525       Cu528   2.108       .  S
O525        C530   1.282       .  A
O526       Cu528   2.107       .  S
Cu527      Cu528   2.189       .  S
O533       Cu541   2.111       .  S
O533        C543   1.282       .  A
O534       Cu541   2.113       .  S
O534        C772   1.286       .  A
O535       Cu541   2.092       .  S
O535        C773   1.291       .  A
O536       Cu541   2.111       .  S
O536        C546   1.290       .  A
O537       Cu542   1.914       .  S
O537        C546   1.249       .  A
O538       Cu770   1.948   1_545  S
O538        C545   1.252       .  A
O539       Cu770   1.912       .  S
O539        C544   1.254       .  A
O540       Cu542   1.980       .  S
O540        C543   1.251       .  A
Cu541      Cu542   2.183       .  S
Cu542       O766   1.917       .  S
Cu542       O767   1.945       .  S
C544        O762   1.291       .  A
C545        O763   1.284   1_545  A
C547        C548   1.438       .  A
C547        C552   1.402       .  A
C547        C590   1.519       .  S
C548        C549   1.388       .  A
C548        C622   1.465       .  S
C549        C550   1.400       .  A
C550        C551   1.453       .  A
C550        C648   1.502       .  S
C551        C552   1.423       .  A
C551        C638   1.510       .  S
C552        H553   1.083       .  S
C555        C556   1.437       .  A
C555        C560   1.398       .  A
C555        C636   1.513       .  S
C556        C557   1.391       .  A
C556        C592   1.469       .  S
C557        C558   1.403       .  A
C557        H790   1.087       .  S
C558        C559   1.457       .  A
C558        C653   1.509       .  S
C559        C560   1.417       .  A
C559        C646   1.499       .  S
H562        C785   1.087   1_545  S
C563        C564   1.439       .  A
C563        C568   1.399       .  A
C563        C620   1.512       .  S
C564        C565   1.390       .  A
C564        C634   1.473       .  S
C565        C566   1.408       .  A
C565        H570   1.085       .  S
C566        C567   1.453       .  A
C566        C640   1.513       .  S
C567        C568   1.417       .  A
C567        C657   1.499       .  S
C568        H797   1.086       .  S
H569        C796   1.085   1_545  S
C571        C572   1.438       .  A
C571        C576   1.399       .  A
C571        C589   1.513       .  S
C572        C573   1.390       .  A
C572        C633   1.469       .  S
C573        C574   1.403       .  A
C574        C575   1.453       .  A
C574        C669   1.504       .  S
C575        C576   1.416       .  A
C575        C661   1.499       .  S
C576        H805   1.085       .  S
H577        C804   1.085   1_545  S
O579       Cu815   1.943       .  S
O579        C589   1.251       .  A
O580       Cu587   1.976       .  S
O580        C590   1.252       .  A
O581       Cu587   1.912       .  S
O581        C591   1.249       .  A
O582       Cu815   1.915       .  S
O582        C592   1.255       .  A
O583       Cu588   2.093       .  S
O583        C820   1.291       .  A
O584       Cu588   2.110       .  S
O584        C591   1.291       .  A
O585       Cu588   2.112       .  S
O585        C590   1.282       .  A
O586       Cu588   2.113       .  S
O586        C817   1.285   1_545  A
Cu587       O807   1.948   1_545  S
Cu587       O810   1.914       .  S
Cu587      Cu588   2.183       .  S
C589        O814   1.285       .  A
C591        C594   1.474       .  S
C592        O811   1.291       .  A
C593        C594   1.440       .  A
C593        C598   1.402       .  A
C593        C619   1.511       .  S
C594        C595   1.385       .  A
C595        C596   1.407       .  A
C595        H600   1.085       .  S
C596        C597   1.454       .  A
C596        C677   1.508       .  S
C597        C598   1.417       .  A
C597        C673   1.506       .  S
C601        C602   1.438       .  A
C601        C606   1.399       .  A
C601        C635   1.517       .  S
C602        C603   1.390       .  A
C602        C621   1.466       .  S
C603        C604   1.403       .  A
C603        H836   1.088       .  S
C604        C605   1.456       .  A
C604        C665   1.508       .  S
C605        C606   1.420       .  A
C605        C681   1.508       .  S
C606        H607   1.083       .  S
H608        C831   1.088   1_545  S
O609        C619   1.250       .  A
O610       Cu845   1.938       .  S
O610        C620   1.249       .  A
O611       Cu845   1.902       .  S
O611        C621   1.253       .  A
O612        C622   1.253       .  A
O613       Cu618   2.090       .  S
O614       Cu618   2.092       .  S
O614        C849   1.291   1_545  A
O615       Cu618   2.102       .  S
O615        C848   1.282   1_545  A
O616       Cu618   2.101       .  S
Cu617       O838   1.936   1_545  S
Cu617       O839   1.898       .  S
Cu617      Cu618   2.219       .  S
C620        O843   1.282       .  A
C621        O842   1.291       .  A
O623       Cu631   2.095       .  S
O624       Cu631   2.105       .  S
O624        C634   1.290       .  A
O625       Cu631   2.110       .  S
O625        C635   1.283       .  A
O626       Cu631   2.112       .  S
O627        C636   1.250       .  A
O628       Cu632   1.969       .  S
O628        C635   1.250       .  A
O629       Cu632   1.916       .  S
O629        C634   1.251       .  A
O630        C633   1.254       .  A
Cu631      Cu632   2.185       .  S
C637        C638   1.440       .  A
C637        C642   1.408       .  A
C638        C639   1.411       .  A
C639        C640   1.410       .  A
C639        H644   1.064       .  S
C640        C641   1.441       .  A
C641        C642   1.408       .  A
C642        H643   1.064       .  S
C645        C650   1.408   1_556  A
C646        C647   1.407       .  A
C647        C648   1.404       .  A
C647        H652   1.075       .  S
C649        C650   1.410   1_556  A
C650        H651   1.075       .  S
C653        C882   1.440       .  A
C653        C658   1.405       .  A
C654        C881   1.439   1_545  A
C654        C655   1.405       .  A
C655        C656   1.407       .  A
C655        H660   1.070   1_556  S
C656        C885   1.440   1_545  A
C657        C884   1.439       .  A
C657        C658   1.408       .  A
C658        H659   1.071       .  S
C661        C890   1.439       .  A
C661        C666   1.408       .  A
C662        C889   1.439   1_545  A
C662        C663   1.406       .  A
C663        C664   1.405       .  A
C663        H668   1.071       .  S
C664        C893   1.438   1_545  A
C665        C892   1.439       .  A
C665        C666   1.405       .  A
C666        H667   1.071       .  S
C669        C674   1.408       .  A
C670        C671   1.404       .  A
C671        C672   1.406       .  A
C671        H676   1.074       .  S
C673        C674   1.408       .  A
C674        H675   1.073       .  S
C677        C678   1.445       .  A
C677        C682   1.409       .  A
C678        C679   1.412       .  A
C679        C680   1.411       .  A
C679        H684   1.066       .  S
C680        C681   1.443       .  A
C681        C682   1.409       .  A
C682        H683   1.065       .  S
C685        C686   1.438       .  A
C685        C690   1.391       .  A
C685        C714   1.465       .  S
C686        C687   1.399       .  A
C686        C759   1.519       .  S
C687        C688   1.421       .  A
C687        H692   1.083       .  S
C688        C689   1.455       .  A
C688        C906   1.506       .  S
C689        C690   1.402       .  A
C689        C890   1.508       .  S
C693        C694   1.441       .  A
C693        C698   1.388       .  A
C693        C758   1.474       .  S
C694        C695   1.399       .  A
C694        C711   1.512       .  S
C695        C696   1.416       .  A
C696        C697   1.453       .  A
C696        C882   1.499   1_554  S
C697        C698   1.408       .  A
C697        C865   1.513   1_554  S
C698        H699   1.085       .  S
O701       Cu709   2.096       .  S
O702       Cu709   2.094       .  S
O703       Cu709   2.102       .  S
O704       Cu709   2.102       .  S
O705        C714   1.253       .  A
O706        C713   1.250       .  A
O707        C712   1.253   1_455  A
O708        C711   1.248       .  A
Cu709      Cu710   2.212       .  S
C712        C723   1.468       .  S
C713        C715   1.511       .  S
C715        C716   1.439       .  A
C715        C720   1.401       .  A
C716        C717   1.386       .  A
C716        C771   1.473       .  S
C717        C718   1.407       .  A
C717        H722   1.085       .  S
C718        C719   1.455       .  A
C718        C869   1.510   1_554  S
C719        C720   1.417       .  A
C719        C873   1.504   1_554  S
C723        C724   1.438       .  A
C723        C728   1.388       .  A
C724        C725   1.403       .  A
C724        C774   1.516       .  S
C725        C726   1.421       .  A
C725        H730   1.083       .  S
C726        C727   1.453       .  A
C726        C908   1.512       .  S
C727        C728   1.401       .  A
C727        C898   1.500       .  S
C731        C732   1.437       .  A
C731        C736   1.392       .  A
C731        C773   1.470       .  S
C732        C733   1.398       .  A
C732        C760   1.512       .  S
C733        C734   1.416       .  A
C734        C735   1.456       .  A
C734        C877   1.499   1_554  S
C735        C736   1.404       .  A
C735        C884   1.509   1_554  S
C739        C740   1.437       .  A
C739        C744   1.391       .  A
C739        C757   1.469   1_655  S
C740        C741   1.398       .  A
C740        C772   1.512       .  S
C741        C742   1.416       .  A
C742        C743   1.454       .  A
C742        C892   1.497       .  S
C743        C744   1.402       .  A
C743        C900   1.507       .  S
O747        C757   1.257       .  A
O748       Cu755   1.915       .  S
O748        C758   1.249       .  A
O749       Cu755   1.980       .  S
O749        C759   1.250       .  A
O750        C760   1.251       .  A
O751       Cu756   2.112       .  S
O752       Cu756   2.110       .  S
O752        C759   1.282       .  A
O753       Cu756   2.110       .  S
O753        C758   1.290       .  A
O754       Cu756   2.088       .  S
Cu755      Cu756   2.185       .  S
O761       Cu769   2.107       .  S
O761        C771   1.291       .  A
O762       Cu769   2.096       .  S
O763       Cu769   2.109       .  S
O764       Cu769   2.107       .  S
O764        C774   1.282       .  A
O765       Cu770   1.972       .  S
O765        C774   1.251       .  A
O766        C773   1.256       .  A
O767        C772   1.251       .  A
O768       Cu770   1.911       .  S
O768        C771   1.250       .  A
Cu769      Cu770   2.186       .  S
C775        C776   1.439       .  A
C775        C780   1.399       .  A
C775        C818   1.517       .  S
C776        C777   1.390       .  A
C776        C850   1.466       .  S
C777        C778   1.402       .  A
C778        C779   1.454       .  A
C778        C876   1.504       .  S
C779        C780   1.420       .  A
C779        C866   1.508       .  S
C780        H781   1.083       .  S
C783        C784   1.437       .  A
C783        C788   1.402       .  A
C783        C864   1.511       .  S
C784        C785   1.388       .  A
C784        C820   1.470   1_565  S
C785        C786   1.401       .  A
C786        C787   1.453       .  A
C786        C881   1.501       .  S
C787        C788   1.417       .  A
C787        C874   1.503       .  S
C791        C792   1.440       .  A
C791        C796   1.403       .  A
C791        C848   1.512       .  S
C792        C793   1.385       .  A
C792        C862   1.474       .  S
C793        C794   1.407       .  A
C793        H798   1.085       .  S
C794        C795   1.456       .  A
C794        C868   1.509       .  S
C795        C796   1.418       .  A
C795        C885   1.508       .  S
C799        C800   1.437       .  A
C799        C804   1.402       .  A
C799        C817   1.513       .  S
C800        C801   1.389       .  A
C800        C861   1.470       .  S
C801        C802   1.401       .  A
C802        C803   1.456       .  A
C802        C897   1.504       .  S
C803        C804   1.419       .  A
C803        C889   1.505       .  S
O807        C817   1.252       .  A
O808       Cu815   1.969       .  S
O808        C818   1.250       .  A
O809       Cu815   1.912       .  S
O809        C819   1.250       .  A
O810        C820   1.255       .  A
O811       Cu816   2.093       .  S
O812       Cu816   2.108       .  S
O812        C819   1.291       .  A
O813       Cu816   2.108       .  S
O813        C818   1.282       .  A
O814       Cu816   2.111       .  S
Cu815      Cu816   2.191       .  S
C819        C822   1.474       .  S
C821        C822   1.440       .  A
C821        C826   1.399       .  A
C821        C847   1.513       .  S
C822        C823   1.389       .  A
C823        C824   1.408       .  A
C823        H828   1.085       .  S
C824        C825   1.454       .  A
C824        C905   1.514       .  S
C825        C826   1.416       .  A
C825        C901   1.500       .  S
C829        C830   1.438       .  A
C829        C834   1.403       .  A
C829        C863   1.517       .  S
C830        C831   1.387       .  A
C830        C849   1.466       .  S
C831        C832   1.400       .  A
C832        C833   1.452       .  A
C832        C893   1.499       .  S
C833        C834   1.422       .  A
C833        C909   1.511       .  S
C834        H835   1.083       .  S
O837        C847   1.248       .  A
O838        C848   1.249       .  A
O839        C849   1.253   1_545  A
O840        C850   1.252       .  A
O841       Cu846   2.095       .  S
O842       Cu846   2.091       .  S
O843       Cu846   2.103       .  S
O844       Cu846   2.104       .  S
Cu845      Cu846   2.212       .  S
O851       Cu859   2.092       .  S
O852       Cu859   2.112       .  S
O852        C862   1.291       .  A
O853       Cu859   2.107       .  S
O853        C863   1.281       .  A
O854       Cu859   2.110       .  S
O855        C864   1.252       .  A
O856       Cu860   1.977       .  S
O856        C863   1.252       .  A
O857       Cu860   1.911       .  S
O857        C862   1.249       .  A
O858        C861   1.256       .  A
Cu859      Cu860   2.186       .  S
C865        C866   1.442       .  A
C865        C870   1.412       .  A
C866        C867   1.409       .  A
C867        C868   1.409       .  A
C867        H872   1.065       .  S
C868        C869   1.446       .  A
C869        C870   1.412       .  A
C870        H871   1.066       .  S
C873        C878   1.405   1_556  A
C874        C875   1.408       .  A
C875        C876   1.407       .  A
C875        H880   1.074       .  S
C877        C878   1.406   1_556  A
C878        H879   1.075       .  S
C881        C886   1.407       .  A
C882        C883   1.407       .  A
C883        C884   1.405       .  A
C883        H888   1.070   1_556  S
C885        C886   1.406       .  A
C886        H887   1.069       .  S
C889        C894   1.406       .  A
C890        C891   1.405       .  A
C891        C892   1.408       .  A
C891        H896   1.071       .  S
C893        C894   1.406       .  A
C894        H895   1.072       .  S
C897        C902   1.405       .  A
C898        C899   1.409       .  A
C899        C900   1.409       .  A
C899        H904   1.073       .  S
C901        C902   1.407       .  A
C902        H903   1.074       .  S
C905        C906   1.443       .  A
C905        C910   1.410       .  A
C906        C907   1.410       .  A
C907        C908   1.407       .  A
C907        H912   1.064       .  S
C908        C909   1.438       .  A
C909        C910   1.412       .  A
C910        H911   1.064       .  S
