geometry optimzed in LAMMPS
_audit_creation_date              2020-11-30 
_audit_creation_method            'lammps2cif' 
_symmetry_space_group_name_H-M    'P1' 
_symmetry_Int_Tables_number       1 
_symmetry_cell_setting            triclinic 
loop_ 
_symmetry_equiv_pos_as_xyz 
  x,y,z 
_cell_length_a                    82.4727789 
_cell_length_b                    44.509486394097564 
_cell_length_c                    26.912768862914795 
_cell_angle_alpha                 88.77045920372491 
_cell_angle_beta                  101.16956253703405 
_cell_angle_gamma                 90.00224270961307 
loop_ 
_atom_site_label 
_atom_site_type_symbol 
_atom_site_fract_x 
_atom_site_fract_y 
_atom_site_fract_z 
_atom_site_charge 
C1          C  0.20366604  0.25064148  0.56150099     0.87000
C2          C  0.21057006  0.22515028  0.53391708    -0.53200
C3          C  0.22736454  0.22408161  0.53931665     0.09900
C4          C  0.23608466  0.25065869  0.57068388     0.20900
C5          C  0.21328836  0.24870978  0.61616296    -0.54000
C6          C  0.23009454  0.24915231  0.62173397     0.10000
C7          C  0.21058231  0.27862284  0.53807470    -0.53500
C8          C  0.22745613  0.27929969  0.54410637     0.10600
H9          H  0.20280358  0.20959330  0.50970534     0.15100
H10         H  0.24973901  0.25088543  0.57475690     0.00900
H11         H  0.20707807  0.24795151  0.64828090     0.15400
H12         H  0.20295715  0.29667057  0.51827891     0.15200
C13         C  0.29106284  0.50175533  0.38460586     0.87000
C14         C  0.28463768  0.47626360  0.41497232    -0.53200
C15         C  0.26787448  0.47554096  0.41182781     0.09900
C16         C  0.25881947  0.50204279  0.37916531     0.20900
C17         C  0.28093611  0.49959310  0.33100816    -0.54000
C18         C  0.26422552  0.49976238  0.32736090     0.10000
C19         C  0.28437705  0.02987659  0.40676313    -0.53500
C20         C  0.26756542  0.03064928  0.40289774     0.10600
H21         H  0.29275413  0.45993613  0.43773723     0.15100
H22         H  0.24522189  0.00240963  0.37650571     0.00900
H23         H  0.28672669  0.49815631  0.29814889     0.15400
H24         H  0.29213101  0.04760621  0.42531707     0.15200
C25         C  0.76642072  0.28225059  0.40656915     0.87000
C26         C  0.78457249  0.27800001  0.40254066    -0.53200
C27         C  0.78794409  0.25274609  0.37808436     0.09900
C28         C  0.77236798  0.23388923  0.35830941     0.20900
C29         C  0.75688234  0.28099526  0.35161612    -0.54000
C30         C  0.76000892  0.25612246  0.32606213     0.10000
C31         C  0.76145759  0.25217503  0.42969111    -0.53500
C32         C  0.76480461  0.22697217  0.40518091     0.10600
H33         H  0.79400765  0.29419008  0.41755312     0.15100
H34         H  0.77473170  0.21334340  0.33813351     0.00900
H35         H  0.74825953  0.29844403  0.33436927     0.15400
H36         H  0.75455648  0.25022352  0.45974934     0.15200
C37         C  0.70306459  0.00492953  0.56695155     0.87000
C38         C  0.70965575  0.47646556  0.54523221    -0.53200
C39         C  0.72641497  0.47573471  0.54740325     0.09900
C40         C  0.73539124  0.00338845  0.57412873     0.20900
C41         C  0.71306327  0.00444967  0.62145591    -0.54000
C42         C  0.72982368  0.00403187  0.62581581     0.10000
C43         C  0.71010697  0.03139634  0.54025245    -0.53500
C44         C  0.72687178  0.03097656  0.54428031     0.10600
H45         H  0.70232312  0.45696156  0.53291279     0.15100
H46         H  0.74900369  0.00315026  0.57710140     0.00900
H47         H  0.70720417  0.00417227  0.65434716     0.15400
H48         H  0.70246297  0.04972510  0.52130285     0.15200
C49         C  0.93835335  0.23003899  0.36078377     0.87000
C50         C  0.93948264  0.25674786  0.32458038    -0.53200
C51         C  0.92636371  0.26013610  0.28559236     0.09900
C52         C  0.91327637  0.23462978  0.28402884     0.20900
C53         C  0.92133542  0.23377419  0.37591134    -0.54000
C54         C  0.90795974  0.23523875  0.33619886     0.10000
C55         C  0.93631315  0.20320440  0.32474112    -0.53500
C56         C  0.92299319  0.20482982  0.28587550     0.10600
H57         H  0.94968925  0.27251842  0.32996979     0.15100
H58         H  0.90301567  0.23585206  0.25085982     0.00900
H59         H  0.92018416  0.23518463  0.41524962     0.15400
H60         H  0.94484967  0.18457379  0.32740107     0.15200
C61         C  0.05258127  0.23464717  0.59721280     0.87000
C62         C  0.05408007  0.26223632  0.63100379    -0.53200
C63         C  0.06836555  0.26437285  0.66620789     0.09900
C64         C  0.07974900  0.23679620  0.66661656     0.20900
C65         C  0.06902044  0.23464846  0.57620621    -0.54000
C66         C  0.08330309  0.23656534  0.61264951     0.10000
C67         C  0.05515066  0.20760235  0.63374159    -0.53500
C68         C  0.06904965  0.20832191  0.67008630     0.10600
H69         H  0.04447292  0.27931750  0.62618324     0.15100
H70         H  0.09097972  0.23798486  0.69602777     0.00900
H71         H  0.06994595  0.23122752  0.53786634     0.15400
H72         H  0.04695466  0.18830037  0.62944069     0.15200
O73         O  0.20606492  0.47348509  0.16608775    -0.57300
C74         C  0.25319858  0.49796477  0.27689679     0.75300
O75         O  0.25066168  0.46562966  0.12762286    -0.58500
C76         C  0.19851934  0.49755496  0.14912199     0.75300
C77         C  0.24019924  0.04271501  0.10580708     0.77700
Cd78       Cd  0.23388832  0.49545338  0.17351901     1.37500
O79         O  0.23778486  0.50253286  0.26907126    -0.57300
O80         O  0.23387507  0.04883108  0.14370415    -0.56100
C81         C  0.24039689  0.44486867  0.11424211     0.77700
O82         O  0.24484461  0.01596175  0.10295933    -0.58500
O83         O  0.25904278  0.49187141  0.23835122    -0.56900
O84         O  0.20728429  0.52094331  0.14964694    -0.56900
O85         O  0.22769160  0.44520398  0.13430381    -0.56100
O86         O  0.28798337  0.26873118  0.79188572    -0.57300
C87         C  0.24071618  0.25011478  0.67323627     0.75300
O88         O  0.24891196  0.22622519  0.84845967    -0.58500
C89         C  0.29469283  0.24415357  0.80965786     0.75300
C90         C  0.25343553  0.30108936  0.83599304     0.77700
Cd91       Cd  0.25929275  0.24970573  0.77831485     1.37500
O92         O  0.25634722  0.25118793  0.68156376    -0.57300
O93         O  0.26592283  0.29969553  0.81523351    -0.56100
C94         C  0.25072956  0.19927686  0.83669032     0.77700
O95         O  0.24277876  0.28060666  0.82539784    -0.58500
O96         O  0.23428742  0.24995817  0.71211168    -0.56900
O97         O  0.28526852  0.22153839  0.80667041    -0.56900
O98         O  0.25600735  0.19538658  0.79607405    -0.56100
C99         C  0.94303014  0.48811637  0.03386839     0.87000
C100        C  0.94282087  0.46124540  0.07064635    -0.53200
C101        C  0.92906345  0.45928273  0.09147254     0.09900
C102        C  0.91696909  0.48628072  0.07664316     0.20900
C103        C  0.92652876  0.48662311  0.99641594    -0.54000
C104        C  0.91274399  0.48647529  0.01780822     0.10000
C105        C  0.94134020  0.01499812  0.06749839    -0.53500
C106        C  0.92778253  0.01473315  0.08972249     0.10600
H107        H  0.95259271  0.44454538  0.07933341     0.15100
H108        H  0.90610955  0.48551122  0.09525952     0.00900
H109        H  0.92586233  0.48639533  0.95573798     0.15400
H110        H  0.95035914  0.03280672  0.07444181     0.15200
C111        C  0.05328239  0.48739832  0.90904971     0.87000
C112        C  0.05489366  0.45959475  0.87812844    -0.53200
C113        C  0.06969494  0.45619800  0.86305230     0.09900
C114        C  0.08156517  0.48306461  0.87839946     0.20900
C115        C  0.06872211  0.48733317  0.95185167    -0.54000
C116        C  0.08344769  0.48468115  0.93645074     0.10000
C117        C  0.05685493  0.01385767  0.87507043    -0.53500
C118        C  0.07140251  0.01161196  0.85800210     0.10600
H119        H  0.04480472  0.44374941  0.86879645     0.15100
H120        H  0.09363703  0.48162653  0.86634281     0.00900
H121        H  0.06837297  0.49146345  0.99106797     0.15400
H122        H  0.04875175  0.03323473  0.86588895     0.15200
O123        O  0.70790576  0.22678597  0.15724799    -0.57300
C124        C  0.75205271  0.25186930  0.27253203     0.75300
O125        O  0.75018020  0.21444279  0.11414828    -0.58500
C126        C  0.70104021  0.25126681  0.14003669     0.75300
C127        C  0.74879198  0.28663887  0.09696119     0.77700
Cd128      Cd  0.73654355  0.24585026  0.16614720     1.37500
O129        O  0.74446464  0.27307205  0.24599169    -0.57300
O130        O  0.73671993  0.29327641  0.11743133    -0.56100
C131        C  0.74093950  0.19177237  0.11437035     0.77700
O132        O  0.75606715  0.26201691  0.11121335    -0.58500
O133        O  0.75245753  0.22723070  0.25049967    -0.56900
O134        O  0.71047537  0.27359416  0.13957234    -0.56900
O135        O  0.73010584  0.19332376  0.14182839    -0.56100
O136        O  0.78878882  0.47604975  0.79659534    -0.57300
C137        C  0.74080573  0.50263983  0.67655383     0.75300
O138        O  0.74935638  0.46244921  0.83490777    -0.58500
C139        C  0.79623460  0.50053287  0.80786655     0.75300
C140        C  0.75178440  0.03970126  0.84892674     0.77700
Cd141      Cd  0.76061322  0.49706919  0.77920044     1.37500
O142        O  0.75624239  0.50684239  0.68384905    -0.57300
O143        O  0.75930928  0.04783687  0.81409180    -0.56100
C144        C  0.75663266  0.43914078  0.82420076     0.77700
O145        O  0.74746104  0.01247084  0.84887847    -0.58500
O146        O  0.73498355  0.49673150  0.71564435    -0.56900
O147        O  0.78735076  0.52402116  0.80049340    -0.56900
O148        O  0.76492019  0.44194781  0.78931988    -0.56100
C149        C  0.55249846  0.24313575  0.92816977     0.87000
C150        C  0.55399885  0.21353653  0.90106244    -0.53200
C151        C  0.56768780  0.21095511  0.88016011     0.09900
C152        C  0.57930307  0.23844278  0.88951312     0.20900
C153        C  0.56884723  0.24310682  0.96791146    -0.54000
C154        C  0.58289206  0.24133191  0.94778328     0.10000
C155        C  0.55464891  0.26818262  0.89029098    -0.53500
C156        C  0.56847448  0.26621314  0.86973913     0.10600
H157        H  0.54523094  0.19526726  0.90021596     0.15100
H158        H  0.59052222  0.23641883  0.87276262     0.00900
H159        H  0.56961801  0.24281253  0.00848667     0.15400
H160        H  0.54600713  0.28685146  0.88173504     0.15200
C161        C  0.44116769  0.25016179  0.04735757     0.87000
C162        C  0.43792755  0.22262956  0.07940421    -0.53200
C163        C  0.42408429  0.22416934  0.09944372     0.09900
C164        C  0.41341742  0.25219236  0.08163132     0.20900
C165        C  0.42537623  0.25103183  0.00548794    -0.54000
C166        C  0.41069179  0.25151535  0.02294919     0.10000
C167        C  0.43943932  0.27757147  0.07938215    -0.53500
C168        C  0.42492300  0.27935169  0.09606223     0.10600
H169        H  0.44478324  0.20176478  0.08253394     0.15100
H170        H  0.40205313  0.25249061  0.09777839     0.00900
H171        H  0.42584216  0.25082755  0.96550747     0.15400
H172        H  0.44862207  0.29528956  0.08574831     0.15200
C173        C  0.55443624  0.49187092  0.61141965     0.87000
C174        C  0.55487077  0.01712679  0.64955506    -0.53200
C175        C  0.56847732  0.01757267  0.68779090     0.09900
C176        C  0.58082135  0.49178818  0.68442354     0.20900
C177        C  0.57107234  0.49496941  0.59279468    -0.54000
C178        C  0.58489130  0.49552491  0.63087241     0.10000
C179        C  0.55730302  0.46266489  0.64299339    -0.53500
C180        C  0.57069943  0.46240864  0.68129813     0.10600
H181        H  0.54524544  0.03417666  0.64520762     0.15100
H182        H  0.59177283  0.49144579  0.71570745     0.00900
H183        H  0.57239911  0.49442370  0.55392829     0.15400
H184        H  0.54967597  0.44285123  0.63422549     0.15200
C185        C  0.44285672  0.49329748  0.36035436     0.87000
C186        C  0.44203604  0.02398438  0.33240145    -0.53200
C187        C  0.42851923  0.02823839  0.29507934     0.09900
C188        C  0.41707077  0.50076548  0.28709733     0.20900
C189        C  0.42605506  0.48972926  0.37686756    -0.54000
C190        C  0.41227668  0.49456961  0.33930260     0.10000
C191        C  0.44208089  0.47117563  0.31677426    -0.53500
C192        C  0.42837212  0.47400207  0.27955200     0.10600
H193        H  0.45153527  0.04101742  0.34057737     0.15100
H194        H  0.40688879  0.50520792  0.25470981     0.00900
H195        H  0.42541320  0.48306275  0.41539372     0.15400
H196        H  0.45128541  0.45409646  0.31494789     0.15200
C197        C  0.51948391  0.50053020  0.48944084    -0.04900
C198        C  0.50576925  0.48868616  0.50704489     0.09200
C199        C  0.50755347  0.47936310  0.55790957    -0.02300
C200        C  0.52296353  0.48164819  0.59121470    -0.00600
C201        C  0.53744835  0.49168930  0.57350194    -0.04200
C202        C  0.53508767  0.50279862  0.52235053     0.02800
C203        C  0.48897794  0.48868702  0.47326417     0.09700
C204        C  0.49331467  0.46742032  0.57611185     0.35500
C205        C  0.54775326  0.01943908  0.50338862     0.39000
C206        C  0.48221853  0.46205406  0.45068739    -0.04600
C207        C  0.46649182  0.46246114  0.41829283     0.02600
C208        C  0.45785196  0.49012387  0.40525044    -0.04200
C209        C  0.46346001  0.01528838  0.43571829    -0.00400
C210        C  0.47923632  0.01495951  0.46744376    -0.03000
C211        C  0.49141470  0.43411663  0.46146596     0.36300
C212        C  0.45282504  0.04113683  0.43692204     0.39900
C213        C  0.45868400  0.43399094  0.40347099     0.39000
C214        C  0.48550449  0.04177179  0.49435104     0.36000
C215        C  0.51734362  0.01097743  0.43706183     0.36600
C216        C  0.52342896  0.47375416  0.64412130     0.39900
N217        N  0.45252932  0.41114065  0.39198948    -0.38200
N218        N  0.49875091  0.41185136  0.47037391    -0.39800
N219        N  0.44448881  0.06193284  0.43803611    -0.37500
N220        N  0.49056929  0.06315557  0.51563947    -0.39900
N221        N  0.48199580  0.45767699  0.59040261    -0.39700
N222        N  0.52353941  0.46656920  0.68576467    -0.37300
N223        N  0.55736919  0.03302861  0.48617852    -0.38400
N224        N  0.51556403  0.01927020  0.39530024    -0.40000
C225        C  0.41372086  0.36153367  0.10988089    -0.04900
C226        C  0.41911846  0.36499882  0.16254920     0.09200
C227        C  0.42432641  0.33924795  0.19330632    -0.02300
C228        C  0.42368517  0.31056938  0.17183356    -0.00600
C229        C  0.42043434  0.30770131  0.11890035    -0.04200
C230        C  0.41537565  0.33342513  0.08782367     0.02800
C231        C  0.41940230  0.39541545  0.18623943     0.09700
C232        C  0.43096738  0.34227966  0.24697159     0.35500
C233        C  0.41139447  0.33092393  0.03318411     0.39000
C234        C  0.41008829  0.40044001  0.22408650    -0.04600
C235        C  0.41345676  0.42546652  0.25556056     0.02600
C236        C  0.42374678  0.44888248  0.24346105    -0.04200
C237        C  0.43181064  0.44528359  0.20213275    -0.00400
C238        C  0.43032331  0.41805866  0.17538052    -0.03000
C239        C  0.39746751  0.37911958  0.23199871     0.36300
C240        C  0.44227543  0.46889303  0.18834116     0.39900
C241        C  0.40766737  0.42514186  0.30310695     0.39000
C242        C  0.44078634  0.41265020  0.13889031     0.36000
C243        C  0.40629685  0.38673551  0.07855312     0.36600
C244        C  0.42557997  0.28411850  0.20458880     0.39900
N245        N  0.40312670  0.42399548  0.34118373    -0.38200
N246        N  0.38735850  0.36215468  0.23805253    -0.39800
N247        N  0.45061100  0.48733671  0.17585306    -0.37500
N248        N  0.44919800  0.40818590  0.11002545    -0.39900
N249        N  0.43635487  0.34479358  0.28968843    -0.39700
N250        N  0.42635710  0.26362388  0.23209621    -0.37300
N251        N  0.40784491  0.32915031  0.98959279    -0.38400
N252        N  0.40021107  0.40672929  0.05357207    -0.40000
C253        C  0.43455510  0.09485361  0.20868864    -0.04900
C254        C  0.42110606  0.11362966  0.21297540     0.09200
C255        C  0.40979710  0.10397692  0.24305287    -0.02300
C256        C  0.41178742  0.07560570  0.26816552    -0.00600
C257        C  0.42553740  0.05713057  0.26513533    -0.04200
C258        C  0.43712148  0.06736584  0.23615008     0.02800
C259        C  0.41974139  0.14445176  0.18868250     0.09700
C260        C  0.39648188  0.12384372  0.24987848     0.35500
C261        C  0.45219351  0.05051107  0.23653304     0.39000
C262        C  0.40739340  0.15125100  0.14567580    -0.04600
C263        C  0.40757775  0.17908097  0.11935868     0.02600
C264        C  0.42055448  0.19963151  0.13456664    -0.04200
C265        C  0.43227867  0.19347822  0.17953425    -0.00400
C266        C  0.43162641  0.16637759  0.20700368    -0.03000
C267        C  0.39501288  0.12895888  0.12695214     0.36300
C268        C  0.44550460  0.21453299  0.19674885     0.39900
C269        C  0.39480360  0.18567971  0.07545692     0.39000
C270        C  0.44367802  0.16043108  0.25315820     0.36000
C271        C  0.44598111  0.10419342  0.17658425     0.36600
C272        C  0.40018867  0.06683503  0.29982515     0.39900
N273        N  0.38424866  0.19031434  0.04103617    -0.38200
N274        N  0.38514001  0.11115693  0.11201178    -0.39800
N275        N  0.45607123  0.23123108  0.21086718    -0.37500
N276        N  0.45332457  0.15559534  0.28981381    -0.39900
N277        N  0.38588584  0.13968566  0.25548810    -0.39700
N278        N  0.39058203  0.06125373  0.32472782    -0.37300
N279        N  0.46449679  0.03771679  0.23799630    -0.38400
N280        N  0.45506508  0.11176403  0.15098960    -0.40000
C281        C  0.56193627  0.32941694  0.76994415    -0.04900
C282        C  0.57635516  0.34660699  0.78483385     0.09200
C283        C  0.58940510  0.33475164  0.82167091    -0.02300
C284        C  0.58763741  0.30679529  0.84605720    -0.00600
C285        C  0.57248737  0.29094213  0.83507477    -0.04200
C286        C  0.56000886  0.30179252  0.79476489     0.02800
C287        C  0.57769373  0.37708907  0.76104962     0.09700
C288        C  0.60461838  0.35165878  0.83487332     0.35500
C289        C  0.54511297  0.28449832  0.77815709     0.39000
C290        C  0.57554192  0.40341899  0.78764299    -0.04600
C291        C  0.57464226  0.43187571  0.76280321     0.02600
C292        C  0.57544685  0.43400331  0.71098720    -0.04200
C293        C  0.57855234  0.40777181  0.68532258    -0.00400
C294        C  0.57998195  0.37957627  0.71056932    -0.03000
C295        C  0.57362482  0.40106466  0.84001034     0.36300
C296        C  0.58038949  0.40986601  0.63277350     0.39900
C297        C  0.57208991  0.45874539  0.78984992     0.39000
C298        C  0.58347969  0.35291663  0.68433054     0.36000
C299        C  0.54890136  0.34047288  0.72945347     0.36600
C300        C  0.60160133  0.29489342  0.88199006     0.39900
N301        N  0.57014373  0.48018176  0.81160347    -0.38200
N302        N  0.57213892  0.39911792  0.88184406    -0.39800
N303        N  0.58190259  0.41170665  0.59095612    -0.37500
N304        N  0.58628754  0.33162754  0.66349275    -0.39900
N305        N  0.61670722  0.36525910  0.84549678    -0.39700
N306        N  0.61335773  0.28616042  0.90909565    -0.37300
N307        N  0.53314389  0.27109689  0.76414034    -0.38400
N308        N  0.53859716  0.34920218  0.69685368    -0.40000
C309        C  0.58661347  0.08691432  0.76190574    -0.04900
C310        C  0.57258971  0.09784660  0.77863087     0.09200
C311        C  0.55809112  0.08041751  0.77129158    -0.02300
C312        C  0.55753233  0.05258946  0.74685859    -0.00600
C313        C  0.57097399  0.04282912  0.72523613    -0.04200
C314        C  0.58582175  0.05977236  0.73491120     0.02800
C315        C  0.57311450  0.12723710  0.80557572     0.09700
C316        C  0.54351437  0.09156540  0.78789328     0.35500
C317        C  0.60043487  0.05003732  0.71735849     0.39000
C318        C  0.57272674  0.15489522  0.77849068    -0.04600
C319        C  0.57207155  0.18240871  0.80349339     0.02600
C320        C  0.57109360  0.18244776  0.85530481    -0.04200
C321        C  0.57179965  0.15468508  0.88254864    -0.00400
C322        C  0.57315441  0.12735971  0.85802343    -0.03000
C323        C  0.57230151  0.15495511  0.72437888     0.36300
C324        C  0.57147273  0.15419179  0.93631016     0.39900
C325        C  0.57171362  0.21057694  0.77527263     0.39000
C326        C  0.57437938  0.09916517  0.88662990     0.36000
C327        C  0.60186520  0.10392643  0.77214943     0.36600
C328        C  0.54323932  0.03357405  0.74619998     0.39900
N329        N  0.57154931  0.23295774  0.75249426    -0.38200
N330        N  0.57190207  0.15493863  0.68115882    -0.39800
N331        N  0.57119696  0.15383079  0.97915007    -0.37500
N332        N  0.57532907  0.07660776  0.90922388    -0.39900
N333        N  0.53190081  0.10059311  0.80096911    -0.39700
N334        N  0.53174391  0.01887324  0.74722761    -0.37300
N335        N  0.61259761  0.04315363  0.70521243    -0.38400
N336        N  0.61400200  0.11756669  0.78031806    -0.40000
C337        C  0.50525427  0.24051619  0.92719628    -0.04900
C338        C  0.50426291  0.25264301  0.97412267     0.09200
C339        C  0.51847267  0.26458353  0.00454999    -0.02300
C340        C  0.53399168  0.26243407  0.99000134    -0.00600
C341        C  0.53563253  0.24704057  0.94516230    -0.04200
C342        C  0.52061461  0.23874751  0.91177328     0.02800
C343        C  0.48827382  0.25216957  0.99244292     0.09700
C344        C  0.51694508  0.27966879  0.05081805     0.35500
C345        C  0.52045234  0.22921433  0.86042337     0.39000
C346        C  0.48616797  0.23141003  0.03051462    -0.04600
C347        C  0.47185945  0.23232791  0.05172324     0.02600
C348        C  0.45799400  0.25077724  0.02911713    -0.04200
C349        C  0.46075993  0.27272796  0.99217222    -0.00400
C350        C  0.47588805  0.27363745  0.97484769    -0.03000
C351        C  0.49927519  0.20985849  0.04976761     0.36300
C352        C  0.44862985  0.29594697  0.97381773     0.39900
C353        C  0.47318673  0.21741583  0.10071931     0.39000
C354        C  0.47907263  0.29745137  0.94033294     0.36000
C355        C  0.49031865  0.22978629  0.89468007     0.36600
C356        C  0.54752727  0.27858382  0.01999163     0.39900
N357        N  0.47503416  0.20494843  0.13959370    -0.38200
N358        N  0.50972955  0.19280058  0.06514514    -0.39800
N359        N  0.43927474  0.31489820  0.95857539    -0.37500
N360        N  0.48175879  0.31658919  0.91331359    -0.39900
N361        N  0.51563959  0.29169411  0.08755065    -0.39700
N362        N  0.55779303  0.29189141  0.04573607    -0.37300
N363        N  0.52004054  0.22110076  0.81962927    -0.38400
N364        N  0.47838444  0.22134880  0.86884106    -0.40000
C365        C  0.62826476  0.22410538  0.00628782    -0.04900
C366        C  0.63215344  0.24804411  0.03988166     0.09200
C367        C  0.62008798  0.26995225  0.04275940    -0.02300
C368        C  0.60422574  0.26810545  0.01177519    -0.00600
C369        C  0.59991485  0.24321252  0.97982275    -0.04200
C370        C  0.61219126  0.22138426  0.97694680     0.02800
C371        C  0.64947225  0.25147958  0.06868117     0.09700
C372        C  0.62427952  0.29510088  0.07618534     0.35500
C373        C  0.60878820  0.19640546  0.94302107     0.39000
C374        C  0.66106506  0.26745791  0.04631713    -0.04600
C375        C  0.67778443  0.26835300  0.07071343     0.02600
C376        C  0.68307569  0.25320259  0.11792464    -0.04200
C377        C  0.67130898  0.23807391  0.14113591    -0.00400
C378        C  0.65453770  0.23735257  0.11661309    -0.03000
C379        C  0.65585314  0.28219661  0.99719477     0.36300
C380        C  0.67640628  0.22336376  0.19030808     0.39900
C381        C  0.68967751  0.28327575  0.04532292     0.39000
C382        C  0.64248059  0.22175013  0.14025613     0.36000
C383        C  0.64109594  0.20283834  0.00056257     0.36600
C384        C  0.59326167  0.29386683  0.00781471     0.39900
N385        N  0.69919276  0.29505676  0.02510678    -0.38200
N386        N  0.65177170  0.29395643  0.95799768    -0.39800
N387        N  0.68047480  0.21161534  0.22953635    -0.37500
N388        N  0.63283007  0.20938012  0.15913122    -0.39900
N389        N  0.62766363  0.31511991  0.10292008    -0.39700
N390        N  0.58496511  0.31508646  0.00367021    -0.37300
N391        N  0.60701355  0.17621688  0.91618716    -0.38400
N392        N  0.65137961  0.18611306  0.99561213    -0.40000
C393        C  0.75661436  0.31305740  0.96823108    -0.04900
C394        C  0.75665220  0.34448951  0.97358425     0.09200
C395        C  0.75617949  0.35668710  0.02129989    -0.02300
C396        C  0.75453117  0.33763078  0.06256377    -0.00600
C397        C  0.75348078  0.30619739  0.05654173    -0.04200
C398        C  0.75521694  0.29389478  0.00970718     0.02800
C399        C  0.75632622  0.36504521  0.92862646     0.09700
C400        C  0.75708970  0.38897526  0.02762122     0.35500
C401        C  0.75470993  0.26161381  0.00312846     0.39000
C402        C  0.74127887  0.37845206  0.90438459    -0.04600
C403        C  0.74118472  0.40118093  0.86703996     0.02600
C404        C  0.75616983  0.41075246  0.85388681    -0.04200
C405        C  0.77104450  0.39547734  0.87508317    -0.00400
C406        C  0.77106611  0.37251292  0.91210943    -0.03000
C407        C  0.72591756  0.36911552  0.91858185     0.36300
C408        C  0.78655314  0.40473801  0.86174680     0.39900
C409        C  0.72565524  0.41482972  0.84225478     0.39000
C410        C  0.78632326  0.35707284  0.93423004     0.36000
C411        C  0.75738737  0.30056829  0.91940455     0.36600
C412        C  0.75408125  0.35036301  0.11146259     0.39900
N413        N  0.71328112  0.42568115  0.82230923    -0.38200
N414        N  0.71366918  0.36157944  0.92985234    -0.39800
N415        N  0.79895469  0.41213750  0.85135342    -0.37500
N416        N  0.79847323  0.34454729  0.95148004    -0.39900
N417        N  0.75782129  0.41472497  0.03270002    -0.39700
N418        N  0.75377830  0.36042898  0.15056961    -0.37300
N419        N  0.75436910  0.23587872  0.99769179    -0.38400
N420        N  0.75800201  0.29075278  0.88033750    -0.40000
C421        C  0.74461415  0.11162782  0.91677879    -0.04900
C422        C  0.74582545  0.10082897  0.96694192     0.09200
C423        C  0.74805305  0.06990244  0.97813052    -0.02300
C424        C  0.74934753  0.04973654  0.93934781    -0.00600
C425        C  0.74878981  0.06058237  0.88895256    -0.04200
C426        C  0.74619141  0.09169832  0.87793537     0.02800
C427        C  0.74473527  0.12224592  0.00812050     0.09700
C428        C  0.74927022  0.05896949  0.02994059     0.35500
C429        C  0.74476568  0.10337025  0.82652665     0.39000
C430        C  0.72927761  0.12897160  0.02013693    -0.04600
C431        C  0.72808391  0.15029817  0.05730055     0.02600
C432        C  0.74240813  0.16560121  0.08189861    -0.04200
C433        C  0.75798669  0.15794504  0.07075324    -0.00400
C434        C  0.75909433  0.13648994  0.03380714    -0.03000
C435        C  0.71449503  0.11495842  0.99217972     0.36300
C436        C  0.77297248  0.17205488  0.09726051     0.39900
C437        C  0.71193637  0.15736409  0.06796457     0.39000
C438        C  0.77495818  0.12982476  0.02076074     0.36000
C439        C  0.74171414  0.14341139  0.90534417     0.36600
C440        C  0.75175885  0.01799389  0.95224722     0.39900
N441        N  0.69901976  0.16280447  0.07635784    -0.38200
N442        N  0.70275388  0.10392760  0.96932407    -0.39800
N443        N  0.78488891  0.18340886  0.11836161    -0.37500
N444        N  0.78759723  0.12469008  0.01012182    -0.39900
N445        N  0.75028485  0.05032945  0.07130102    -0.39700
N446        N  0.75357904  0.99270329  0.96280670    -0.37300
N447        N  0.74363616  0.11283818  0.78560522    -0.38400
N448        N  0.73934105  0.16877225  0.89654267    -0.40000
C449        C  0.98026193  0.01737461  0.97746921    -0.04900
C450        C  0.98832915  0.49030865  0.97104239     0.09200
C451        C  0.98022903  0.46283348  0.97566502    -0.02300
C452        C  0.96491952  0.46225189  0.99166466    -0.00600
C453        C  0.95798703  0.48916165  0.00655342    -0.04200
C454        C  0.96479051  0.01687900  0.99252995     0.02800
C455        C  0.00487562  0.49054653  0.95586774     0.09700
C456        C  0.98762248  0.43507399  0.96314622     0.35500
C457        C  0.95551048  0.04478821  0.98859864     0.39000
C458        C  0.01893363  0.48026831  0.99020550    -0.04600
C459        C  0.03411481  0.47665740  0.97422664     0.02600
C460        C  0.03623130  0.48799813  0.92572893    -0.04200
C461        C  0.02158242  0.99637655  0.89046893    -0.00400
C462        C  0.00614201  0.99779905  0.90567272    -0.03000
C463        C  0.01761181  0.47250875  0.04198579     0.36300
C464        C  0.02173034  0.00118913  0.83718328     0.39900
C465        C  0.04633192  0.45728424  0.00541128     0.39000
C466        C  0.99131601  0.00590512  0.86913586     0.36000
C467        C  0.98783537  0.04582671  0.96788563     0.36600
C468        C  0.95599499  0.43407087  0.98904495     0.39900
N469        N  0.05590341  0.44165460  0.03065189    -0.38200
N470        N  0.01653677  0.46647449  0.08326333    -0.39800
N471        N  0.02119126  0.00504850  0.79427268    -0.37500
N472        N  0.97945660  0.01238755  0.84027583    -0.39900
N473        N  0.99358098  0.41301275  0.95321862    -0.39700
N474        N  0.94912209  0.41132553  0.98668461    -0.37300
N475        N  0.94842448  0.06741012  0.98540647    -0.38400
N476        N  0.99383935  0.06847235  0.95989031    -0.40000
C477        C  0.86686747  0.47197896  0.96040803    -0.04900
C478        C  0.86410218  0.49283468  0.91942231     0.09200
C479        C  0.87692878  0.01218122  0.91190216    -0.02300
C480        C  0.89244471  0.01075763  0.94501578    -0.00600
C481        C  0.89561948  0.48908744  0.98544630    -0.04200
C482        C  0.88239282  0.47045614  0.99389168     0.02800
C483        C  0.84715272  0.49648155  0.88723833     0.09700
C484        C  0.87399950  0.03406646  0.87033506     0.35500
C485        C  0.88416210  0.45062394  0.03795573     0.39000
C486        C  0.83651122  0.01912815  0.89831088    -0.04600
C487        C  0.82007629  0.02129740  0.87116009     0.02600
C488        C  0.81420129  0.50115437  0.83158444    -0.04200
C489        C  0.82525549  0.47958943  0.81868735    -0.00400
C490        C  0.84159817  0.47714084  0.84667431    -0.03000
C491        C  0.84245794  0.03990420  0.93858468     0.36300
C492        C  0.81989763  0.45998930  0.77629731     0.39900
C493        C  0.80903794  0.04313438  0.88652700     0.39000
C494        C  0.85270359  0.45455381  0.83398886     0.36000
C495        C  0.85353591  0.45227378  0.96835270     0.36600
C496        C  0.90458114  0.03354466  0.93958293     0.39900
N497        N  0.80028081  0.06048517  0.89916011    -0.38200
N498        N  0.84730308  0.05654731  0.97047144    -0.39800
N499        N  0.81557884  0.44440980  0.74243335    -0.37500
N500        N  0.86152784  0.43648718  0.82376117    -0.39900
N501        N  0.87164030  0.05153235  0.83722923    -0.39700
N502        N  0.91403946  0.05205316  0.93483296    -0.37300
N503        N  0.88488507  0.43508259  0.07335667    -0.38400
N504        N  0.84287745  0.43652556  0.97430607    -0.40000
C505        C  0.33353921  0.22414579  0.90736209    -0.04900
C506        C  0.34554665  0.24210692  0.89043209     0.09200
C507        C  0.34112869  0.25957784  0.84554774    -0.02300
C508        C  0.32463850  0.25989312  0.81841657    -0.00600
C509        C  0.31243038  0.24227948  0.83562293    -0.04200
C510        C  0.31702603  0.22448636  0.88061582     0.02800
C511        C  0.36239896  0.24500999  0.92295451     0.09700
C512        C  0.35357833  0.27774534  0.82800773     0.35500
C513        C  0.30458849  0.20860577  0.90235283     0.39000
C514        C  0.37559687  0.22679322  0.91535028    -0.04600
C515        C  0.39123358  0.22876805  0.94783083     0.02600
C516        C  0.39391280  0.24938184  0.98844532    -0.04200
C517        C  0.38027489  0.26702725  0.99636565    -0.00400
C518        C  0.36483901  0.26533549  0.96299478    -0.03000
C519        C  0.37295485  0.20573218  0.87417918     0.36300
C520        C  0.38145143  0.28649394  0.03931910     0.39900
C521        C  0.40404605  0.20766986  0.94140571     0.39000
C522        C  0.35129481  0.28477231  0.96962545     0.36000
C523        C  0.33814425  0.20599303  0.95342613     0.36600
C524        C  0.32025280  0.27894031  0.77343233     0.39900
N525        N  0.41420061  0.19075143  0.93609516    -0.38200
N526        N  0.37080657  0.18902622  0.84120334    -0.39800
N527        N  0.38150098  0.30172125  0.07367226    -0.37500
N528        N  0.34052781  0.30038143  0.97460240    -0.39900
N529        N  0.36359340  0.29211161  0.81416088    -0.39700
N530        N  0.31674730  0.29440992  0.73784776    -0.37300
N531        N  0.29472552  0.19627123  0.92037600    -0.38400
N532        N  0.34185460  0.19152216  0.99012438    -0.40000
C533        C  0.12714371  0.46499884  0.00804566    -0.04900
C534        C  0.13037115  0.48880383  0.04229777     0.09200
C535        C  0.11814288  0.01086792  0.04265873    -0.02300
C536        C  0.10292228  0.00961236  0.00816404    -0.00600
C537        C  0.09964916  0.48588476  0.97318076    -0.04200
C538        C  0.11184233  0.46340483  0.97383643     0.02800
C539        C  0.14740769  0.49279711  0.07310865     0.09700
C540        C  0.12158947  0.03574953  0.07704617     0.35500
C541        C  0.10879882  0.43838538  0.93973763     0.39000
C542        C  0.15831451  0.01293411  0.05541454    -0.04600
C543        C  0.17480984  0.01534528  0.08129189     0.02600
C544        C  0.18054846  0.49792595  0.12602268    -0.04200
C545        C  0.16932720  0.47895038  0.14522442    -0.00400
C546        C  0.15288378  0.47605334  0.11842372    -0.03000
C547        C  0.15266922  0.03059755  0.00933140     0.36300
C548        C  0.17459928  0.46287553  0.19309778     0.39900
C549        C  0.18598856  0.03462068  0.05969341     0.39000
C550        C  0.14169149  0.45543847  0.13694543     0.36000
C551        C  0.13987987  0.44266283  0.00693142     0.36600
C552        C  0.09131597  0.03438510  0.00574172     0.39900
N553        N  0.19477844  0.05002178  0.04206591    -0.38200
N554        N  0.14823154  0.04482046  0.97273491    -0.39800
N555        N  0.17886900  0.45030403  0.23150569    -0.37500
N556        N  0.13285493  0.43878980  0.15176930    -0.39900
N557        N  0.12439661  0.05570814  0.10420175    -0.39700
N558        N  0.08213561  0.05427103  0.00335116    -0.37300
N559        N  0.10679983  0.41815236  0.91297764    -0.38400
N560        N  0.15009669  0.42496034  0.00610857    -0.40000
C561        C  0.26226087  0.34459997  0.95808481    -0.04900
C562        C  0.24788955  0.36247263  0.95344005     0.09200
C563        C  0.23568190  0.36138268  0.90874801    -0.02300
C564        C  0.23768584  0.34207582  0.86934855    -0.00600
C565        C  0.25198126  0.32396518  0.87423659    -0.04200
C566        C  0.26437931  0.32560792  0.91851205     0.02800
C567        C  0.24595566  0.38325430  0.99509078     0.09700
C568        C  0.22106017  0.38016353  0.90342846     0.35500
C569        C  0.27904837  0.30680147  0.92436167     0.39000
C570        C  0.25438842  0.41083284  0.99960220    -0.04600
C571        C  0.25293883  0.43042608  0.03903836     0.02600
C572        C  0.24280034  0.42276589  0.07470183    -0.04200
C573        C  0.23422204  0.39495935  0.06952949    -0.00400
C574        C  0.23593014  0.37530335  0.03017284    -0.03000
C575        C  0.26439839  0.41931073  0.96273123     0.36300
C576        C  0.22360641  0.38621221  0.10443871     0.39900
C577        C  0.26152323  0.45899127  0.04087422     0.39000
C578        C  0.22736489  0.34672703  0.02559192     0.36000
C579        C  0.27471573  0.34533463  0.00421425     0.36600
C580        C  0.22524720  0.34136616  0.82322245     0.39900
N581        N  0.26843074  0.48167907  0.04191924    -0.38200
N582        N  0.27235897  0.42610198  0.93333607    -0.39800
N583        N  0.21502407  0.37913210  0.13191493    -0.37500
N584        N  0.22054648  0.32392023  0.02173618    -0.39900
N585        N  0.20938066  0.39512608  0.89930759    -0.39700
N586        N  0.21538257  0.34088019  0.78625652    -0.37300
N587        N  0.29073195  0.29179880  0.92895365    -0.38400
N588        N  0.28460792  0.34592126  0.04110493    -0.40000
C589        C  0.25628867  0.12659277  0.91566153    -0.04900
C590        C  0.24358417  0.12923275  0.94367770     0.09200
C591        C  0.23245235  0.15366601  0.93384214    -0.02300
C592        C  0.23441656  0.17604375  0.89762901    -0.00600
C593        C  0.24741362  0.17389670  0.87024924    -0.04200
C594        C  0.25810330  0.14860298  0.87867529     0.02800
C595        C  0.24250279  0.10706617  0.98546759     0.09700
C596        C  0.21922003  0.15617873  0.96210313     0.35500
C597        C  0.27167227  0.14597147  0.85181159     0.39000
C598        C  0.24765900  0.11533011  0.03649434    -0.04600
C599        C  0.24700636  0.09437335  0.07609325     0.02600
C600        C  0.24128842  0.06495152  0.06483935    -0.04200
C601        C  0.23625258  0.05661475  0.01363651    -0.00400
C602        C  0.23679754  0.07765206  0.97417587    -0.03000
C603        C  0.25387995  0.14536427  0.04814566     0.36300
C604        C  0.23003855  0.02657814  0.00131802     0.39900
C605        C  0.25287483  0.10275908  0.12826043     0.39000
C606        C  0.23144237  0.06900971  0.92187605     0.36000
C607        C  0.26799206  0.10185663  0.92668735     0.36600
C608        C  0.22305106  0.20137073  0.88898524     0.39900
N609        N  0.25763365  0.10944104  0.16985084    -0.38200
N610        N  0.25877239  0.16938732  0.05724904    -0.39800
N611        N  0.22512696  0.00260711  0.99174561    -0.37500
N612        N  0.22723379  0.06187354  0.88027788    -0.39900
N613        N  0.20874327  0.15832193  0.98488649    -0.39700
N614        N  0.21406114  0.22167052  0.88238405    -0.37300
N615        N  0.28254868  0.14384747  0.83061282    -0.38400
N616        N  0.27730700  0.08212298  0.93570797    -0.40000
C617        C  0.06643912  0.07012952  0.75189044    -0.04900
C618        C  0.07829638  0.09163549  0.77257368     0.09200
C619        C  0.09025972  0.08372723  0.81579927    -0.02300
C620        C  0.08919324  0.05594787  0.84155244    -0.00600
C621        C  0.07620391  0.03579402  0.82397173    -0.04200
C622        C  0.06575471  0.04201343  0.77671863     0.02800
C623        C  0.07788333  0.12274511  0.74938311     0.09700
C624        C  0.10354803  0.10444911  0.83402252     0.35500
C625        C  0.05477597  0.01889248  0.75267630     0.39000
C626        C  0.07095957  0.14686133  0.77173035    -0.04600
C627        C  0.06917289  0.17557867  0.74766392     0.02600
C628        C  0.07413392  0.18034861  0.70078214    -0.04200
C629        C  0.08085939  0.15601685  0.67820205    -0.00400
C630        C  0.08327267  0.12772841  0.70327860    -0.03000
C631        C  0.06489377  0.14165128  0.81827209     0.36300
C632        C  0.08452283  0.15959976  0.62778554     0.39900
C633        C  0.06108672  0.19959546  0.76925852     0.39000
C634        C  0.09092623  0.10342515  0.68099156     0.36000
C635        C  0.05459448  0.07732474  0.70590420     0.36600
C636        C  0.10161175  0.04841491  0.88566833     0.39900
N637        N  0.05456816  0.21868156  0.78649803    -0.38200
N638        N  0.06000552  0.13734889  0.85529298    -0.39800
N639        N  0.08737816  0.16238361  0.58749909    -0.37500
N640        N  0.09706834  0.08405459  0.66325788    -0.39900
N641        N  0.11419012  0.12094551  0.84835565    -0.39700
N642        N  0.11213310  0.04325113  0.91988528    -0.37300
N643        N  0.04638559  0.00019239  0.73255753    -0.38400
N644        N  0.04516481  0.08318548  0.66921446    -0.40000
C645        C  0.08453057  0.32029170  0.77229401    -0.04900
C646        C  0.07737177  0.34745869  0.75022587     0.09200
C647        C  0.06937259  0.34783256  0.69892976    -0.02300
C648        C  0.06854319  0.32147250  0.67044425    -0.00600
C649        C  0.07303188  0.29310093  0.69474470    -0.04200
C650        C  0.08153823  0.29299507  0.74601885     0.02800
C651        C  0.07704999  0.37490863  0.78195945     0.09700
C652        C  0.06122990  0.37500254  0.67576110     0.35500
C653        C  0.08689144  0.26521664  0.77323729     0.39000
C654        C  0.08463923  0.40205065  0.77077671    -0.04600
C655        C  0.08206776  0.42879804  0.79594637     0.02600
C656        C  0.07349497  0.42796930  0.83690295    -0.04200
C657        C  0.06787899  0.39957060  0.85211031    -0.00400
C658        C  0.06851171  0.37400187  0.82256904    -0.03000
C659        C  0.09513778  0.40235990  0.73330477     0.36300
C660        C  0.06196977  0.39588722  0.89931055     0.39900
C661        C  0.08773257  0.45701503  0.77775897     0.39000
C662        C  0.05995500  0.34681065  0.83339452     0.36000
C663        C  0.09466946  0.32041518  0.82280950     0.36600
C664        C  0.06366201  0.32421196  0.61572434     0.39900
N665        N  0.09234277  0.47932981  0.76261725    -0.38200
N666        N  0.10359706  0.40241342  0.70364796    -0.39800
N667        N  0.05722958  0.39265118  0.93682358    -0.37500
N668        N  0.05315562  0.32508738  0.84176747    -0.39900
N669        N  0.05460587  0.39655434  0.65732152    -0.39700
N670        N  0.05978666  0.32666129  0.57213762    -0.37300
N671        N  0.09151843  0.24346431  0.79590719    -0.38400
N672        N  0.10276689  0.32062950  0.86305151    -0.40000
C673        C  0.91586998  0.12322914  0.24718876    -0.04900
C674        C  0.91771941  0.12468880  0.19632540     0.09200
C675        C  0.91815049  0.15312568  0.17217684    -0.02300
C676        C  0.91803086  0.17982922  0.19998706    -0.00600
C677        C  0.91826216  0.17819282  0.25261729    -0.04200
C678        C  0.91603369  0.14973491  0.27504587     0.02800
C679        C  0.91996974  0.09606591  0.16957370     0.09700
C680        C  0.91933783  0.15484189  0.11918843     0.35500
C681        C  0.91353835  0.14730067  0.32668595     0.39000
C682        C  0.90659093  0.08280470  0.13691428    -0.04600
C683        C  0.90878820  0.05568574  0.11226789     0.02600
C684        C  0.92435854  0.04081202  0.12149645    -0.04200
C685        C  0.93743483  0.05333797  0.15742969    -0.00400
C686        C  0.93534436  0.08106379  0.18008103    -0.03000
C687        C  0.89046055  0.09710207  0.12905128     0.36300
C688        C  0.95313639  0.03768033  0.17197713     0.39900
C689        C  0.89494029  0.04413240  0.07647467     0.39000
C690        C  0.94910786  0.09439338  0.21434804     0.36000
C691        C  0.91427851  0.09415529  0.27129342     0.36600
C692        C  0.91750459  0.20875941  0.17415894     0.39900
N693        N  0.88338355  0.03594058  0.04864186    -0.38200
N694        N  0.87758061  0.10843730  0.12308328    -0.39800
N695        N  0.96573411  0.02544423  0.18342269    -0.37500
N696        N  0.96003047  0.10515576  0.24165061    -0.39900
N697        N  0.92032487  0.15623397  0.07689295    -0.39700
N698        N  0.91655307  0.23162170  0.15249221    -0.37300
N699        N  0.91131347  0.14382376  0.36750085    -0.38400
N700        N  0.91306981  0.07092734  0.29036495    -0.40000
C701        C  0.93468052  0.31963633  0.18829926    -0.04900
C702        C  0.92456093  0.34388193  0.19739087     0.09200
C703        C  0.91484633  0.34004800  0.23496345    -0.02300
C704        C  0.91602452  0.31333849  0.26491544    -0.00600
C705        C  0.92489799  0.28819697  0.25281842    -0.04200
C706        C  0.93469864  0.29192124  0.21542900     0.02800
C707        C  0.92495160  0.37406574  0.17025313     0.09700
C708        C  0.90359509  0.36371470  0.24291859     0.35500
C709        C  0.94575890  0.26791369  0.20754186     0.39000
C710        C  0.91892072  0.37720288  0.11748853    -0.04600
C711        C  0.92002313  0.40512038  0.09210845     0.02600
C712        C  0.92594565  0.43099356  0.11954258    -0.04200
C713        C  0.93152479  0.42814141  0.17241172    -0.00400
C714        C  0.93144575  0.39976951  0.19739391    -0.03000
C715        C  0.91158443  0.35164387  0.08909681     0.36300
C716        C  0.93787826  0.45426122  0.20097373     0.39900
C717        C  0.91538379  0.40703048  0.03729604     0.39000
C718        C  0.93861851  0.39680805  0.25091332     0.36000
C719        C  0.94552069  0.32346041  0.15219258     0.36600
C720        C  0.90939511  0.31292786  0.31106213     0.39900
N721        N  0.91164208  0.40859343  0.99358780    -0.38200
N722        N  0.90573478  0.33128021  0.06632003    -0.39800
N723        N  0.94289724  0.47501826  0.22414569    -0.37500
N724        N  0.94434136  0.39433182  0.29360343    -0.39900
N725        N  0.89454615  0.38257846  0.24884069    -0.39700
N726        N  0.90422545  0.31290414  0.34809490    -0.37300
N727        N  0.95462525  0.24873839  0.20161685    -0.38400
N728        N  0.95415715  0.32640206  0.12329800    -0.40000
C729        C  0.97762778  0.20207002  0.45567557    -0.04900
C730        C  0.98454871  0.22953688  0.47383151     0.09200
C731        C  0.97482435  0.25582536  0.46461247    -0.02300
C732        C  0.95908136  0.25525894  0.43238301    -0.00600
C733        C  0.95314199  0.22851638  0.40688544    -0.04200
C734        C  0.96167402  0.20128800  0.42475894     0.02800
C735        C  0.00186966  0.23061579  0.50436158     0.09700
C736        C  0.98115354  0.28357803  0.48810768     0.35500
C737        C  0.95359332  0.17238138  0.41780514     0.39000
C738        C  0.01538350  0.23426049  0.47997949    -0.04600
C739        C  0.03171814  0.23689731  0.50832333     0.02600
C740        C  0.03497680  0.23388156  0.56239145    -0.04200
C741        C  0.02086971  0.23096769  0.58625014    -0.00400
C742        C  0.00466132  0.22906855  0.55744197    -0.03000
C743        C  0.01232100  0.23559228  0.42495802     0.36300
C744        C  0.02269785  0.23072221  0.64110560     0.39900
C745        C  0.04432921  0.24525559  0.48018466     0.39000
C746        C  0.99068325  0.22543514  0.58257370     0.36000
C747        C  0.98693964  0.17445931  0.46942517     0.36600
C748        C  0.94894295  0.28221499  0.42664828     0.39900
N749        N  0.05371378  0.25219377  0.45517067    -0.38200
N750        N  0.00982249  0.23645783  0.38112794    -0.39800
N751        N  0.02407161  0.23061704  0.68473726    -0.37500
N752        N  0.97955475  0.22251104  0.60262294    -0.39900
N753        N  0.98623498  0.30562391  0.50713612    -0.39700
N754        N  0.94091807  0.30379253  0.42225491    -0.37300
N755        N  0.94754032  0.14889081  0.41334855    -0.38400
N756        N  0.99440105  0.15248608  0.48036615    -0.40000
C757        C  0.62139933  0.52664665  0.57644497    -0.04900
C758        C  0.63425122  0.50662616  0.59757224     0.09200
C759        C  0.63119017  0.48359580  0.63123745    -0.02300
C760        C  0.61526637  0.47987199  0.64257473    -0.00600
C761        C  0.60209949  0.49940059  0.62038162    -0.04200
C762        C  0.60554002  0.52349319  0.58855997     0.02800
C763        C  0.65101344  0.50906306  0.58368716     0.09700
C764        C  0.64458190  0.46355585  0.65426117     0.35500
C765        C  0.59318455  0.04652632  0.57117662     0.39000
C766        C  0.66230420  0.03113161  0.60495725    -0.04600
C767        C  0.67857778  0.03131860  0.59539483     0.02600
C768        C  0.68413447  0.50841638  0.56607094    -0.04200
C769        C  0.67173079  0.48953667  0.53842014    -0.00400
C770        C  0.65557792  0.48905688  0.54901117    -0.03000
C771        C  0.65721776  0.05342630  0.63750732     0.36300
C772        C  0.67435972  0.47320875  0.49480321     0.39900
C773        C  0.68940290  0.05569035  0.61550388     0.39000
C774        C  0.64342059  0.46798031  0.52376338     0.36000
C775        C  0.62453219  0.05050020  0.54200235     0.36600
C776        C  0.61294132  0.45588150  0.67758887     0.39900
N777        N  0.69774332  0.07550433  0.63152742    -0.38200
N778        N  0.65312161  0.07129938  0.66320741    -0.39800
N779        N  0.67563700  0.45989845  0.45929748    -0.37500
N780        N  0.63367801  0.45119116  0.50396340    -0.39900
N781        N  0.65525869  0.44758618  0.67250948    -0.39700
N782        N  0.61220823  0.43661458  0.70658891    -0.37300
N783        N  0.58353332  0.06532377  0.55783975    -0.38400
N784        N  0.62709363  0.06950992  0.51456938    -0.40000
C785        C  0.86150031  0.25447672  0.32216612    -0.04900
C786        C  0.85632418  0.23371908  0.35604064     0.09200
C787        C  0.86795893  0.21329092  0.38329885    -0.02300
C788        C  0.88485061  0.21530437  0.37984302    -0.00600
C789        C  0.89003773  0.23482900  0.34306835    -0.04200
C790        C  0.87769236  0.25321677  0.31232416     0.02800
C791        C  0.83868780  0.23433945  0.36362033     0.09700
C792        C  0.86249185  0.18999255  0.41484118     0.35500
C793        C  0.88084236  0.27055198  0.26914222     0.39000
C794        C  0.82553197  0.22873647  0.32275409    -0.04600
C795        C  0.80902012  0.23493557  0.32682085     0.02600
C796        C  0.80530793  0.24449824  0.37334044    -0.04200
C797        C  0.81849896  0.24718034  0.41565445    -0.00400
C798        C  0.83504227  0.24338810  0.41018496    -0.03000
C799        C  0.82909932  0.21778842  0.27552517     0.36300
C800        C  0.81517649  0.25352407  0.46543781     0.39900
C801        C  0.79628492  0.23350105  0.28157865     0.39000
C802        C  0.84836673  0.25019049  0.45208796     0.36000
C803        C  0.85010382  0.27770585  0.29782197     0.36600
C804        C  0.89657924  0.19720885  0.41518246     0.39900
N805        N  0.78663670  0.23230890  0.24423745    -0.38200
N806        N  0.83197386  0.20930697  0.23779107    -0.39800
N807        N  0.81250223  0.25874797  0.50502650    -0.37500
N808        N  0.85899389  0.25566653  0.48547160    -0.39900
N809        N  0.85810980  0.17132462  0.43973414    -0.39700
N810        N  0.90570124  0.18333992  0.44512850    -0.37300
N811        N  0.88231396  0.28410160  0.23310106    -0.38400
N812        N  0.84097213  0.29622356  0.27889715    -0.40000
C813        C  0.75516692  0.40868759  0.53653120    -0.04900
C814        C  0.74758591  0.39666834  0.48955295     0.09200
C815        C  0.73391146  0.41199640  0.46016290    -0.02300
C816        C  0.72788444  0.43878451  0.47756739    -0.00600
C817        C  0.73459176  0.44961939  0.52655590    -0.04200
C818        C  0.74835366  0.43417075  0.55582737     0.02800
C819        C  0.75386185  0.36778038  0.47116082     0.09700
C820        C  0.72583315  0.39995170  0.41199348     0.35500
C821        C  0.75512169  0.44285431  0.60713855     0.39000
C822        C  0.75305067  0.34035570  0.49789411    -0.04600
C823        C  0.75940936  0.31360247  0.48150840     0.02600
C824        C  0.76356372  0.31233112  0.43262105    -0.04200
C825        C  0.76553216  0.34044063  0.40785779    -0.00400
C826        C  0.76117765  0.36783114  0.42789975    -0.03000
C827        C  0.74576285  0.33951855  0.54284930     0.36300
C828        C  0.77260145  0.34163106  0.36247032     0.39900
C829        C  0.76422873  0.28981905  0.51903015     0.39000
C830        C  0.76450241  0.39627188  0.40451722     0.36000
C831        C  0.77006236  0.39467705  0.56525665     0.36600
C832        C  0.71509998  0.45566227  0.44375748     0.39900
N833        N  0.76829510  0.27127811  0.54975420    -0.38200
N834        N  0.73995004  0.33875751  0.57869322    -0.39800
N835        N  0.77827347  0.34265885  0.32635453    -0.37500
N836        N  0.76723618  0.41901979  0.38624629    -0.39900
N837        N  0.71941639  0.39037394  0.37354138    -0.39700
N838        N  0.70514906  0.46921850  0.41599208    -0.37300
N839        N  0.76094219  0.44843274  0.64852521    -0.38400
N840        N  0.78192831  0.38343747  0.58808537    -0.40000
C841        C  0.74466083  0.10958385  0.53455394    -0.04900
C842        C  0.74701761  0.11056076  0.48394312     0.09200
C843        C  0.74487243  0.08404317  0.45557310    -0.02300
C844        C  0.73942110  0.05731791  0.47653435    -0.00600
C845        C  0.73571642  0.05703616  0.52563754    -0.04200
C846        C  0.73893117  0.08303203  0.55518953     0.02800
C847        C  0.75151271  0.13966897  0.46044772     0.09700
C848        C  0.74812551  0.08442641  0.40451371     0.35500
C849        C  0.73647502  0.08242878  0.60709666     0.39000
C850        C  0.76802476  0.14563334  0.45646544    -0.04600
C851        C  0.77231222  0.17354534  0.43638419     0.02600
C852        C  0.76013806  0.19606007  0.42093140    -0.04200
C853        C  0.74347649  0.18948474  0.42292401    -0.00400
C854        C  0.73920209  0.16145332  0.44242712    -0.03000
C855        C  0.78065381  0.12305576  0.47376624     0.36300
C856        C  0.73062997  0.21141605  0.40391434     0.39900
C857        C  0.78936943  0.17899798  0.43287259     0.39000
C858        C  0.72206019  0.15488293  0.44363781     0.36000
C859        C  0.74825253  0.13594489  0.56546392     0.36600
C860        C  0.73778260  0.03013443  0.44748567     0.39900
N861        N  0.80308990  0.18238976  0.43028002    -0.38200
N862        N  0.79068404  0.10494650  0.48747993    -0.39800
N863        N  0.72045662  0.22903739  0.38873768    -0.37500
N864        N  0.70836506  0.14963575  0.44437987    -0.39900
N865        N  0.75081652  0.08480807  0.36387118    -0.39700
N866        N  0.73689126  0.00867797  0.42364475    -0.37300
N867        N  0.73473069  0.08207177  0.64874694    -0.38400
N868        N  0.75124909  0.15692787  0.59019658    -0.40000
C869        C  0.33600714  0.02510781  0.37332060    -0.04900
C870        C  0.34412329  0.49714305  0.37660525     0.09200
C871        C  0.33509561  0.47074910  0.38091012    -0.02300
C872        C  0.31797150  0.47219374  0.38068150    -0.00600
C873        C  0.30987536  0.50043625  0.38320109    -0.04200
C874        C  0.31900639  0.02683740  0.37519389     0.02800
C875        C  0.36157413  0.49535430  0.36804690     0.09700
C876        C  0.34342563  0.44182711  0.38396185     0.35500
C877        C  0.31097402  0.05568761  0.36269340     0.39000
C878        C  0.37490650  0.00412224  0.40568178    -0.04600
C879        C  0.39113945  0.00490753  0.39580796     0.02600
C880        C  0.39459359  0.49456953  0.34891585    -0.04200
C881        C  0.38079669  0.48571663  0.31115606    -0.00400
C882        C  0.36453286  0.48678211  0.32060302    -0.03000
C883        C  0.37175523  0.01327118  0.45441798     0.36300
C884        C  0.38258067  0.47558884  0.26169741     0.39900
C885        C  0.40371618  0.01931705  0.43273367     0.39000
C886        C  0.35057484  0.47975431  0.28060031     0.36000
C887        C  0.34511982  0.05223626  0.36574000     0.36600
C888        C  0.30867019  0.44449929  0.37155447     0.39900
N889        N  0.41348665  0.03100191  0.46277655    -0.38200
N890        N  0.36918111  0.02061606  0.49315626    -0.39800
N891        N  0.38320319  0.46778450  0.22133699    -0.37500
N892        N  0.33946465  0.47427965  0.24872222    -0.39900
N893        N  0.35008320  0.41879543  0.38657204    -0.39700
N894        N  0.30135705  0.42232507  0.36397669    -0.37300
N895        N  0.30517846  0.07920902  0.35233625    -0.38400
N896        N  0.35243035  0.07379171  0.35986742    -0.40000
C897        C  0.15869644  0.22166576  0.55811119    -0.04900
C898        C  0.15041592  0.24763963  0.56893260     0.09200
C899        C  0.15919780  0.27484537  0.57611198    -0.02300
C900        C  0.17601275  0.27624895  0.57149240    -0.00600
C901        C  0.18468230  0.24995764  0.56098508    -0.04200
C902        C  0.17587619  0.22213527  0.55938646     0.02800
C903        C  0.13320097  0.24515471  0.57988138     0.09700
C904        C  0.15105729  0.30140251  0.59032741     0.35500
C905        C  0.18435793  0.19333938  0.56651907     0.39000
C906        C  0.13054720  0.22807379  0.62229952    -0.04600
C907        C  0.11447325  0.22446418  0.63242092     0.02600
C908        C  0.10062196  0.23916056  0.60128093    -0.04200
C909        C  0.10367063  0.25787153  0.56048936    -0.00400
C910        C  0.11968314  0.25995462  0.54897604    -0.03000
C911        C  0.14455823  0.21412820  0.65616680     0.36300
C912        C  0.09074278  0.27693589  0.53198675     0.39900
C913        C  0.11288285  0.20561675  0.67577091     0.39000
C914        C  0.12231734  0.27772835  0.50540675     0.36000
C915        C  0.14961495  0.19372319  0.54852082     0.36600
C916        C  0.18426134  0.30483533  0.58157069     0.39900
N917        N  0.11258452  0.19101894  0.71169725    -0.38200
N918        N  0.15566471  0.20277253  0.68284723    -0.39800
N919        N  0.08072088  0.29259857  0.50887078    -0.37500
N920        N  0.12449643  0.29209020  0.47096153    -0.39900
N921        N  0.14460122  0.32264570  0.60138695    -0.39700
N922        N  0.19013983  0.32829532  0.58924614    -0.37300
N923        N  0.19093529  0.17019174  0.57241852    -0.38400
N924        N  0.14238129  0.17146822  0.54110551    -0.40000
C925        C  0.24932564  0.33709785  0.47308416    -0.04900
C926        C  0.24640193  0.36390931  0.49749124     0.09200
C927        C  0.23895919  0.36199838  0.54052303    -0.02300
C928        C  0.23455201  0.33377623  0.55879878    -0.00600
C929        C  0.23601489  0.30738077  0.53159157    -0.04200
C930        C  0.24378084  0.30907880  0.48929833     0.02800
C931        C  0.25082914  0.39414415  0.47734202     0.09700
C932        C  0.23514649  0.38922596  0.56473444     0.35500
C933        C  0.24569166  0.28219493  0.46157831     0.39000
C934        C  0.24226808  0.40537542  0.42999635    -0.04600
C935        C  0.24714128  0.43264899  0.40917475     0.02600
C936        C  0.26009144  0.45005077  0.43680328    -0.04200
C937        C  0.26739640  0.44017244  0.48668639    -0.00400
C938        C  0.26340983  0.41181401  0.50563516    -0.03000
C939        C  0.22860034  0.38834658  0.40201700     0.36300
C940        C  0.27898830  0.45932552  0.51904402     0.39900
C941        C  0.23914864  0.44147117  0.35828623     0.39000
C942        C  0.27277247  0.40027769  0.55349252     0.38800
C943        C  0.25771917  0.33847076  0.43046593     0.36600
C944        C  0.22894834  0.33178693  0.60660983     0.39900
N945        N  0.23228201  0.44728212  0.31754088    -0.38200
N946        N  0.21776651  0.37462180  0.37973224    -0.39800
N947        N  0.28820550  0.47465596  0.54478580    -0.37500
N948        N  0.28030780  0.39101305  0.59152518    -0.39900
N949        N  0.23204043  0.41102801  0.58369223    -0.39700
N950        N  0.22482853  0.33025162  0.64532020    -0.37300
N951        N  0.24732660  0.26089760  0.43911496    -0.38400
N952        N  0.26434758  0.33968789  0.39630925    -0.40000
C953        C  0.24565049  0.08497045  0.47772211    -0.04900
C954        C  0.24925598  0.11314994  0.45657613     0.09200
C955        C  0.25717617  0.11325423  0.41435410    -0.02300
C956        C  0.26112595  0.08598800  0.39344192    -0.00600
C957        C  0.25918963  0.05816542  0.41781560    -0.04200
C958        C  0.25098741  0.05770066  0.45928507     0.02800
C959        C  0.24445032  0.14265910  0.47748437     0.09700
C960        C  0.26179489  0.14148340  0.39312540     0.35500
C961        C  0.24817276  0.02923480  0.48330218     0.39000
C962        C  0.25166392  0.15157009  0.52709276    -0.04600
C963        C  0.24672126  0.17869560  0.54694403     0.02600
C964        C  0.23530172  0.19846309  0.51639389    -0.04200
C965        C  0.22914203  0.19057388  0.46536767    -0.00400
C966        C  0.23303218  0.16243047  0.44698128    -0.03000
C967        C  0.26416601  0.13265989  0.55805399     0.36300
C968        C  0.21869572  0.21151711  0.43133324     0.39900
C969        C  0.25276476  0.18509655  0.59980183     0.39000
C970        C  0.22485566  0.15350464  0.39679712     0.36000
C971        C  0.23654074  0.08396072  0.51869780     0.36600
C972        C  0.26629253  0.08641535  0.34491684     0.39900
N973        N  0.25770017  0.18943201  0.64226833    -0.38200
N974        N  0.27411830  0.11752097  0.58276406    -0.39800
N975        N  0.21041736  0.22828121  0.40420119    -0.37500
N976        N  0.21837700  0.14642696  0.35671722    -0.39900
N977        N  0.26550029  0.16401280  0.37625941    -0.39700
N978        N  0.26991348  0.08668655  0.30546113    -0.37300
N979        N  0.24582245  0.00654340  0.50244302    -0.38400
N980        N  0.22932717  0.08307025  0.55155150    -0.40000
C981        C  0.20366564  0.75064074  0.56149978     0.87000
C982        C  0.21056971  0.72514931  0.53391642    -0.53200
C983        C  0.22736420  0.72408107  0.53931524     0.09900
C984        C  0.23608423  0.75065850  0.57068175     0.20900
C985        C  0.21328809  0.74870965  0.61616150    -0.54000
C986        C  0.23009424  0.74915242  0.62173216     0.10000
C987        C  0.21058167  0.77862201  0.53807246    -0.53500
C988        C  0.22745547  0.77929915  0.54410358     0.10600
H989        H  0.20280325  0.70959205  0.50970520     0.15100
H990        H  0.24973856  0.75088554  0.57475443     0.00900
H991        H  0.20707787  0.74795151  0.64827963     0.15400
H992        H  0.20295633  0.79666960  0.51827680     0.15200
C993        C  0.29106319  0.00175598  0.38460608     0.87000
C994        C  0.28463805  0.97626369  0.41497155    -0.53200
C995        C  0.26787485  0.97554104  0.41182752     0.09900
C996        C  0.25881984  0.00204328  0.37916602     0.20900
C997        C  0.28093642  0.99959441  0.33100841    -0.54000
C998        C  0.26422585  0.99976346  0.32736143     0.10000
C999        C  0.28437666  0.52987625  0.40676186    -0.53500
C1000       C  0.26756503  0.53064897  0.40289622     0.10600
H1001       H  0.29275453  0.95993561  0.43773477     0.15100
H1002       H  0.24522152  0.50240917  0.37650491     0.00900
H1003       H  0.28672696  0.99815794  0.29814900     0.15400
H1004       H  0.29213061  0.54760605  0.42531539     0.15200
C1005       C  0.76642160  0.78224949  0.40656940     0.87000
C1006       C  0.78457323  0.77799856  0.40254020    -0.53200
C1007       C  0.78794449  0.75274514  0.37808221     0.09900
C1008       C  0.77236814  0.73388911  0.35830646     0.20900
C1009       C  0.75688307  0.78099569  0.35161649    -0.54000
C1010       C  0.76000928  0.75612338  0.32606083     0.10000
C1011       C  0.76145809  0.75217382  0.42968956    -0.53500
C1012       C  0.76480483  0.72697149  0.40517787     0.10600
H1013       H  0.79400857  0.79418816  0.41755335     0.15100
H1014       H  0.77473151  0.71334352  0.33812946     0.00900
H1015       H  0.74826045  0.79844506  0.33437099     0.15400
H1016       H  0.75455697  0.75022186  0.45974782     0.15200
C1017       C  0.70306530  0.50493312  0.56695659     0.87000
C1018       C  0.70965517  0.97646107  0.54523021    -0.53200
C1019       C  0.72641433  0.97573095  0.54739951     0.09900
C1020       C  0.73539206  0.50339083  0.57413688     0.20900
C1021       C  0.71306342  0.50445069  0.62146180    -0.54000
C1022       C  0.72982392  0.50403243  0.62582325     0.10000
C1023       C  0.71010842  0.53140103  0.54026232    -0.53500
C1024       C  0.72687330  0.53098054  0.54429171     0.10600
H1025       H  0.70232297  0.95695624  0.53291456     0.15100
H1026       H  0.74900455  0.50315217  0.57711081     0.00900
H1027       H  0.70720395  0.50417243  0.65435227     0.15400
H1028       H  0.70246482  0.54973063  0.52131398     0.15200
C1029       C  0.93835358  0.73003949  0.36077749     0.87000
C1030       C  0.93948298  0.75674820  0.32457398    -0.53200
C1031       C  0.92636397  0.76013669  0.28558627     0.09900
C1032       C  0.91327642  0.73463078  0.28402319     0.20900
C1033       C  0.92133574  0.73377520  0.37590557    -0.54000
C1034       C  0.90795997  0.73524011  0.33619337     0.10000
C1035       C  0.93631308  0.70320496  0.32473490    -0.53500
C1036       C  0.92299300  0.70483058  0.28586987     0.10600
H1037       H  0.94968968  0.77251851  0.32996319     0.15100
H1038       H  0.90301568  0.73585318  0.25085431     0.00900
H1039       H  0.92018461  0.73518576  0.41524393     0.15400
H1040       H  0.94484955  0.68457436  0.32739388     0.15200
C1041       C  0.05258090  0.73464873  0.59721066     0.87000
C1042       C  0.05407978  0.76223814  0.63100121    -0.53200
C1043       C  0.06836507  0.76437423  0.66620629     0.09900
C1044       C  0.07974828  0.73679713  0.66661592     0.20900
C1045       C  0.06902025  0.73464914  0.57620527    -0.54000
C1046       C  0.08330271  0.73656578  0.61264931     0.10000
C1047       C  0.05514975  0.70760408  0.63373998    -0.53500
C1048       C  0.06904856  0.70832336  0.67008543     0.10600
H1049       H  0.04447277  0.77931961  0.62617995     0.15100
H1050       H  0.09097892  0.73798546  0.69602756     0.00900
H1051       H  0.06994598  0.73122808  0.53786557     0.15400
H1052       H  0.04695351  0.68830237  0.62943892     0.15200
O1053       O  0.20606534  0.97348470  0.16609168    -0.57300
C1054       C  0.25319890  0.99796551  0.27689749     0.75300
O1055       O  0.25066235  0.96562837  0.12762594    -0.58500
C1056       C  0.19851975  0.99755422  0.14912404     0.75300
C1057       C  0.24019875  0.54271604  0.10580711     0.77700
Cd1058     Cd  0.23388868  0.99545313  0.17352019     1.37500
O1059       O  0.23778521  0.00253391  0.26907189    -0.57300
O1060       O  0.23387409  0.54883153  0.14370345    -0.56100
C1061       C  0.24039708  0.94486834  0.11424356     0.77700
O1062       O  0.24484479  0.51596313  0.10295980    -0.58500
O1063       O  0.25904307  0.99187137  0.23835219    -0.56900
O1064       O  0.20728466  0.02094253  0.14964739    -0.56900
O1065       O  0.22769159  0.94520440  0.13430423    -0.56100
O1066       O  0.28798299  0.76872999  0.79188225    -0.57300
C1067       C  0.24071582  0.75011526  0.67323454     0.75300
O1068       O  0.24891104  0.72622553  0.84845843    -0.58500
C1069       C  0.29469213  0.74415214  0.80965461     0.75300
C1070       C  0.25343502  0.80108941  0.83599314     0.77700
Cd1071     Cd  0.25929205  0.74970588  0.77831364     1.37500
O1072       O  0.25634688  0.75118716  0.68156242    -0.57300
O1073       O  0.26592283  0.79969471  0.81523608    -0.56100
C1074       C  0.25072826  0.69927716  0.83668873     0.77700
O1075       O  0.24277781  0.78060771  0.82539516    -0.58500
O1076       O  0.23428695  0.74996012  0.71210972    -0.56900
O1077       O  0.28526744  0.72153754  0.80666862    -0.56900
O1078       O  0.25600586  0.69538675  0.79607220    -0.56100
C1079       C  0.94303019  0.98811901  0.03386639     0.87000
C1080       C  0.94282127  0.96124785  0.07064411    -0.53200
C1081       C  0.92906382  0.95928433  0.09146992     0.09900
C1082       C  0.91696910  0.98628178  0.07664078     0.20900
C1083       C  0.92652889  0.98662502  0.99641376    -0.54000
C1084       C  0.91274406  0.98647647  0.01780578     0.10000
C1085       C  0.94134058  0.51499571  0.06750026    -0.53500
C1086       C  0.92778291  0.51473168  0.08972428     0.10600
H1087       H  0.95259334  0.94454825  0.07933114     0.15100
H1088       H  0.90610957  0.98551156  0.09525712     0.00900
H1089       H  0.92586258  0.98639702  0.95573588     0.15400
H1090       H  0.95035977  0.53280397  0.07444322     0.15200
C1091       C  0.05328284  0.98739959  0.90905132     0.87000
C1092       C  0.05489364  0.95959578  0.87813004    -0.53200
C1093       C  0.06969493  0.95619799  0.86305426     0.09900
C1094       C  0.08156560  0.98306391  0.87840160     0.20900
C1095       C  0.06872251  0.98733364  0.95185352    -0.54000
C1096       C  0.08344805  0.98468059  0.93645270     0.10000
C1097       C  0.05685392  0.51385679  0.87506878    -0.53500
C1098       C  0.07140154  0.51161220  0.85800036     0.10600
H1099       H  0.04480433  0.94375124  0.86879744     0.15100
H1100       H  0.09363753  0.98162506  0.86634562     0.00900
H1101       H  0.06837344  0.99146430  0.99106978     0.15400
H1102       H  0.04875041  0.53323341  0.86588775     0.15200
O1103       O  0.70790567  0.72678891  0.15724533    -0.57300
C1104       C  0.75205281  0.75187156  0.27253079     0.75300
O1105       O  0.75017948  0.71444778  0.11414441    -0.58500
C1106       C  0.70103976  0.75126974  0.14003562     0.75300
C1107       C  0.74879022  0.78664444  0.09696086     0.77700
Cd1108     Cd  0.73654317  0.74585440  0.16614653     1.37500
O1109       O  0.74446476  0.77307493  0.24599201    -0.57300
O1110       O  0.73671836  0.79328123  0.11743231    -0.56100
C1111       C  0.74093948  0.69177662  0.11436981     0.77700
O1112       O  0.75606603  0.76202297  0.11121255    -0.58500
O1113       O  0.75245733  0.72723342  0.25049700    -0.56900
O1114       O  0.71047459  0.77359774  0.13957340    -0.56900
O1115       O  0.73010664  0.69332760  0.14183068    -0.56100
O1116       O  0.78878892  0.97604847  0.79658721    -0.57300
C1117       C  0.74080580  0.00263994  0.67654590     0.75300
O1118       O  0.74935351  0.96245014  0.83489373    -0.58500
C1119       C  0.79623507  0.00053131  0.80785782     0.75300
C1120       C  0.75178239  0.53970085  0.84893247     0.77700
Cd1121     Cd  0.76061353  0.99706936  0.77919200     1.37500
O1122       O  0.75624246  0.00684238  0.68384022    -0.57300
O1123       O  0.75931051  0.54783544  0.81410459    -0.56100
C1124       C  0.75663054  0.93914148  0.82419121     0.77700
O1125       O  0.74745670  0.51247154  0.84887861    -0.58500
O1126       O  0.73498384  0.99673207  0.71563697    -0.56900
O1127       O  0.78735154  0.02401995  0.80048362    -0.56900
O1128       O  0.76491974  0.94194802  0.78931433    -0.56100
C1129       C  0.55249793  0.74313472  0.92816858     0.87000
C1130       C  0.55399846  0.71353571  0.90106065    -0.53200
C1131       C  0.56768739  0.71095468  0.88015800     0.09900
C1132       C  0.57930253  0.73844265  0.88951147     0.20900
C1133       C  0.56884674  0.74310581  0.96791013    -0.54000
C1134       C  0.58289157  0.74133140  0.94778176     0.10000
C1135       C  0.55464827  0.76818199  0.89029022    -0.53500
C1136       C  0.56847385  0.76621307  0.86973824     0.10600
H1137       H  0.54523063  0.69526634  0.90021386     0.15100
H1138       H  0.59052166  0.73641917  0.87276074     0.00900
H1139       H  0.56961761  0.74281095  0.00848523     0.15400
H1140       H  0.54600641  0.78685075  0.88173473     0.15200
C1141       C  0.44116677  0.75016042  0.04735614     0.87000
C1142       C  0.43792661  0.72262825  0.07940285    -0.53200
C1143       C  0.42408328  0.72416811  0.09944211     0.09900
C1144       C  0.41341642  0.75219113  0.08162959     0.20900
C1145       C  0.42537532  0.75103045  0.00548642    -0.54000
C1146       C  0.41069085  0.75151404  0.02294746     0.10000
C1147       C  0.43943840  0.77757010  0.07938081    -0.53500
C1148       C  0.42492207  0.77935035  0.09606087     0.10600
H1149       H  0.44478240  0.70176361  0.08253324     0.15100
H1150       H  0.40205208  0.75248947  0.09777640     0.00900
H1151       H  0.42584127  0.75082596  0.96550586     0.15400
H1152       H  0.44862118  0.79528815  0.08574711     0.15200
C1153       C  0.55443578  0.99187366  0.61142207     0.87000
C1154       C  0.55487120  0.51712471  0.64955142    -0.53200
C1155       C  0.56847765  0.51757120  0.68778750     0.09900
C1156       C  0.58082095  0.99178986  0.68442580     0.20900
C1157       C  0.57107189  0.99497262  0.59279709    -0.54000
C1158       C  0.58489091  0.99552752  0.63087477     0.10000
C1159       C  0.55730255  0.96266719  0.64299466    -0.53500
C1160       C  0.57069894  0.96241043  0.68129944     0.10600
H1161       H  0.54524587  0.53417466  0.64520282     0.15100
H1162       H  0.59177241  0.99144714  0.71570977     0.00900
H1163       H  0.57239858  0.99442775  0.55393045     0.15400
H1164       H  0.54967541  0.94285369  0.63422619     0.15200
C1165       C  0.44285714  0.99329617  0.36035036     0.87000
C1166       C  0.44203548  0.52398583  0.33240575    -0.53200
C1167       C  0.42851897  0.52823917  0.29508225     0.09900
C1168       C  0.41707055  0.00076520  0.28709569     0.20900
C1169       C  0.42605571  0.98972877  0.37686545    -0.54000
C1170       C  0.41227700  0.99456950  0.33930184     0.10000
C1171       C  0.44208045  0.97117421  0.31677003    -0.53500
C1172       C  0.42837132  0.97400114  0.27954909     0.10600
H1173       H  0.45153444  0.54101934  0.34058239     0.15100
H1174       H  0.40688832  0.00520811  0.25470911     0.00900
H1175       H  0.42541430  0.98306187  0.41539177     0.15400
H1176       H  0.45128473  0.95409490  0.31494182     0.15200
C1177       C  0.51948386  0.00053206  0.48944214    -0.04900
C1178       C  0.50576927  0.98868664  0.50704493     0.09200
C1179       C  0.50755336  0.97936320  0.55790943    -0.02300
C1180       C  0.52296313  0.98164986  0.59121576    -0.00600
C1181       C  0.53744791  0.99169218  0.57350411    -0.04200
C1182       C  0.53508732  0.00280181  0.52235297     0.02800
C1183       C  0.48897813  0.98868673  0.47326306     0.09700
C1184       C  0.49331486  0.96741777  0.57611003     0.35500
C1185       C  0.54775394  0.51943399  0.50338454     0.39000
C1186       C  0.48221971  0.96205397  0.45068316    -0.04600
C1187       C  0.46649327  0.96246045  0.41828697     0.02600
C1188       C  0.45785267  0.99012267  0.40524584    -0.04200
C1189       C  0.46346007  0.51528980  0.43572112    -0.00400
C1190       C  0.47923676  0.51496060  0.46744422    -0.03000
C1191       C  0.49141661  0.93411723  0.46146042     0.36300
C1192       C  0.45282533  0.54113832  0.43692683     0.39900
C1193       C  0.45868644  0.93398980  0.40346272     0.39000
C1194       C  0.48550597  0.54177333  0.49434826     0.36000
C1195       C  0.51734339  0.51097607  0.43706071     0.36600
C1196       C  0.52342830  0.97375616  0.64412234     0.39900
N1197       N  0.45253263  0.91113906  0.39197931    -0.38200
N1198       N  0.49875340  0.91185250  0.47036727    -0.39800
N1199       N  0.44448926  0.56193431  0.43804298    -0.37500
N1200       N  0.49057163  0.56315750  0.51563388    -0.39900
N1201       N  0.48199630  0.95767209  0.59039957    -0.39700
N1202       N  0.52353857  0.96657151  0.68576574    -0.37300
N1203       N  0.55737015  0.53302197  0.48617314    -0.38400
N1204       N  0.51556353  0.51926946  0.39529939    -0.40000
C1205       C  0.41371911  0.86153204  0.10987892    -0.04900
C1206       C  0.41911701  0.86499770  0.16254703     0.09200
C1207       C  0.42432574  0.83924723  0.19330428    -0.02300
C1208       C  0.42368450  0.81056849  0.17183216    -0.00600
C1209       C  0.42043339  0.80770000  0.11889897    -0.04200
C1210       C  0.41537437  0.83342356  0.08782203     0.02800
C1211       C  0.41940062  0.89541447  0.18623687     0.09700
C1212       C  0.43096767  0.84227962  0.24696884     0.35500
C1213       C  0.41139342  0.83092218  0.03318248     0.39000
C1214       C  0.41008733  0.90043851  0.22408605    -0.04600
C1215       C  0.41345586  0.92546536  0.25555943     0.02600
C1216       C  0.42374538  0.94888171  0.24345813    -0.04200
C1217       C  0.43180847  0.94528316  0.20212812    -0.00400
C1218       C  0.43032094  0.91805830  0.17537575    -0.03000
C1219       C  0.39746743  0.87911703  0.23200153     0.36300
C1220       C  0.44227291  0.96889278  0.18833529     0.39900
C1221       C  0.40766703  0.92514087  0.30310674     0.39000
C1222       C  0.44078323  0.91265051  0.13888322     0.36000
C1223       C  0.40629440  0.88673325  0.07855093     0.36600
C1224       C  0.42557937  0.78411795  0.20458817     0.39900
N1225       N  0.40312677  0.92399469  0.34118418    -0.38200
N1226       N  0.38735919  0.86215120  0.23805824    -0.39800
N1227       N  0.45060826  0.98733652  0.17584624    -0.37500
N1228       N  0.44919429  0.90818683  0.11001643    -0.39900
N1229       N  0.43635598  0.84479420  0.28968502    -0.39700
N1230       N  0.42635649  0.76362379  0.23209653    -0.37300
N1231       N  0.40784408  0.82914833  0.98959116    -0.38400
N1232       N  0.40020807  0.90672647  0.05356956    -0.40000
C1233       C  0.43455481  0.59485339  0.20868995    -0.04900
C1234       C  0.42110537  0.61362896  0.21297459     0.09200
C1235       C  0.40979608  0.60397609  0.24305077    -0.02300
C1236       C  0.41178649  0.57560520  0.26816432    -0.00600
C1237       C  0.42553708  0.55713093  0.26513734    -0.04200
C1238       C  0.43712146  0.56736632  0.23615328     0.02800
C1239       C  0.41974061  0.64445081  0.18868111     0.09700
C1240       C  0.39648032  0.62384235  0.24987384     0.35500
C1241       C  0.45219392  0.55051230  0.23653901     0.39000
C1242       C  0.40739275  0.65124962  0.14567389    -0.04600
C1243       C  0.40757688  0.67907970  0.11935707     0.02600
C1244       C  0.42055346  0.69963049  0.13456523    -0.04200
C1245       C  0.43227755  0.69347755  0.17953319    -0.00400
C1246       C  0.43162531  0.66637705  0.20700287    -0.03000
C1247       C  0.39501259  0.62895703  0.12694949     0.36300
C1248       C  0.44550338  0.71453250  0.19674779     0.39900
C1249       C  0.39480257  0.68567850  0.07545576     0.39000
C1250       C  0.44367653  0.66043116  0.25315850     0.36000
C1251       C  0.44598079  0.60419278  0.17658523     0.36600
C1252       C  0.40018690  0.56683389  0.29982075     0.39900
N1253       N  0.38424746  0.69031326  0.04103553    -0.38200
N1254       N  0.38514001  0.61115471  0.11200848    -0.39800
N1255       N  0.45606997  0.73123070  0.21086609    -0.37500
N1256       N  0.45332272  0.65559591  0.28981512    -0.39900
N1257       N  0.38588383  0.63968382  0.25548140    -0.39700
N1258       N  0.39057938  0.56125229  0.32472025    -0.37300
N1259       N  0.46449749  0.53771854  0.23800458    -0.38400
N1260       N  0.45506469  0.61176286  0.15099000    -0.40000
C1261       C  0.56193540  0.82941744  0.76994372    -0.04900
C1262       C  0.57635421  0.84660775  0.78483330     0.09200
C1263       C  0.58940421  0.83475244  0.82167027    -0.02300
C1264       C  0.58763659  0.80679611  0.84605695    -0.00600
C1265       C  0.57248663  0.79094263  0.83507445    -0.04200
C1266       C  0.56000812  0.80179293  0.79476450     0.02800
C1267       C  0.57769264  0.87709006  0.76104922     0.09700
C1268       C  0.60461758  0.85165944  0.83487166     0.35500
C1269       C  0.54511238  0.78449838  0.77815643     0.39000
C1270       C  0.57554112  0.90341990  0.78764325    -0.04600
C1271       C  0.57464163  0.93187684  0.76280410     0.02600
C1272       C  0.57544613  0.93400480  0.71098803    -0.04200
C1273       C  0.57855135  0.90777343  0.68532276    -0.00400
C1274       C  0.57998070  0.87957764  0.71056873    -0.03000
C1275       C  0.57362421  0.90106535  0.84001076     0.36300
C1276       C  0.58038861  0.90986816  0.63277380     0.39900
C1277       C  0.57208971  0.95874641  0.78985166     0.39000
C1278       C  0.58347809  0.85291821  0.68432892     0.36000
C1279       C  0.54890050  0.84047302  0.72945275     0.36600
C1280       C  0.60160048  0.79489458  0.88199030     0.39900
N1281       N  0.57014391  0.98018267  0.81160601    -0.38200
N1282       N  0.57213846  0.89911851  0.88184461    -0.39800
N1283       N  0.58190179  0.91170948  0.59095656    -0.37500
N1284       N  0.58628566  0.83162938  0.66349000    -0.39900
N1285       N  0.61670650  0.86525965  0.84549400    -0.39700
N1286       N  0.61335686  0.78616189  0.90909637    -0.37300
N1287       N  0.53314347  0.77109656  0.76413945    -0.38400
N1288       N  0.53859629  0.84920192  0.69685264    -0.40000
C1289       C  0.58661337  0.58691406  0.76190083    -0.04900
C1290       C  0.57258953  0.59784664  0.77862530     0.09200
C1291       C  0.55809097  0.58041744  0.77128589    -0.02300
C1292       C  0.55753217  0.55258935  0.74685277    -0.00600
C1293       C  0.57097405  0.54282842  0.72523170    -0.04200
C1294       C  0.58582183  0.55977161  0.73490738     0.02800
C1295       C  0.57311430  0.62723713  0.80557085     0.09700
C1296       C  0.54351432  0.59156492  0.78788870     0.35500
C1297       C  0.60043517  0.55003573  0.71735676     0.39000
C1298       C  0.57272619  0.65489558  0.77848650    -0.04600
C1299       C  0.57207088  0.68240887  0.80349001     0.02600
C1300       C  0.57109322  0.68244749  0.85530169    -0.04200
C1301       C  0.57179957  0.65468449  0.88254479    -0.00400
C1302       C  0.57315441  0.62735934  0.85801874    -0.03000
C1303       C  0.57230071  0.65495607  0.72437458     0.36300
C1304       C  0.57147288  0.65419061  0.93630644     0.39900
C1305       C  0.57171249  0.71057737  0.77526982     0.39000
C1306       C  0.57437963  0.59916454  0.88662450     0.36000
C1307       C  0.60186511  0.60392607  0.77214489     0.36600
C1308       C  0.54323880  0.53357461  0.74619238     0.39900
N1309       N  0.57154779  0.73295846  0.75249205    -0.38200
N1310       N  0.57190103  0.65494024  0.68115438    -0.39800
N1311       N  0.57119733  0.65382908  0.97914650    -0.37500
N1312       N  0.57532952  0.57660685  0.90921770    -0.39900
N1313       N  0.53190087  0.60059209  0.80096578    -0.39700
N1314       N  0.53174300  0.51887455  0.74721819    -0.37300
N1315       N  0.61259800  0.54315101  0.70521221    -0.38400
N1316       N  0.61400195  0.61756621  0.78031397    -0.40000
C1317       C  0.50525342  0.74051619  0.92719219    -0.04900
C1318       C  0.50426187  0.75264129  0.97411971     0.09200
C1319       C  0.51847165  0.76458049  0.00454895    -0.02300
C1320       C  0.53399082  0.76243119  0.99000120    -0.00600
C1321       C  0.53563187  0.74703910  0.94516093    -0.04200
C1322       C  0.52061400  0.73874708  0.91177052     0.02800
C1323       C  0.48827261  0.75216741  0.99243938     0.09700
C1324       C  0.51694388  0.77966439  0.05081812     0.35500
C1325       C  0.52045207  0.72921391  0.86042081     0.39000
C1326       C  0.48616688  0.73140816  0.03051177    -0.04600
C1327       C  0.47185847  0.73232632  0.05172105     0.02600
C1328       C  0.45799304  0.75077577  0.02911537    -0.04200
C1329       C  0.46075891  0.77272639  0.99217027    -0.00400
C1330       C  0.47588682  0.77363535  0.97484445    -0.03000
C1331       C  0.49927421  0.70985694  0.04976528     0.36300
C1332       C  0.44862914  0.79594619  0.97381771     0.39900
C1333       C  0.47318593  0.71741486  0.10071770     0.39000
C1334       C  0.47907122  0.79744899  0.94032891     0.36000
C1335       C  0.49031773  0.72978882  0.89467313     0.36600
C1336       C  0.54752639  0.77857962  0.01999420     0.39900
N1337       N  0.47503344  0.70494809  0.13959266    -0.38200
N1338       N  0.50972874  0.69279946  0.06514336    -0.39800
N1339       N  0.43927435  0.81489824  0.95857721    -0.37500
N1340       N  0.48175717  0.81658653  0.91330876    -0.39900
N1341       N  0.51563815  0.79168854  0.08755157    -0.39700
N1342       N  0.55779202  0.79188616  0.04574112    -0.37300
N1343       N  0.52004055  0.72110013  0.81962697    -0.38400
N1344       N  0.47838347  0.72135359  0.86883152    -0.40000
C1345       C  0.62826466  0.72410578  0.00628317    -0.04900
C1346       C  0.63215323  0.74804378  0.03987852     0.09200
C1347       C  0.62008747  0.76995075  0.04275938    -0.02300
C1348       C  0.60422513  0.76810399  0.01177579    -0.00600
C1349       C  0.59991442  0.74321195  0.97982112    -0.04200
C1350       C  0.61219104  0.72138448  0.97694298     0.02800
C1351       C  0.64947202  0.75147936  0.06867810     0.09700
C1352       C  0.62427869  0.79509790  0.07618880     0.35500
C1353       C  0.60878801  0.69640612  0.94301631     0.39000
C1354       C  0.66106437  0.76746090  0.04631685    -0.04600
C1355       C  0.67778366  0.76835707  0.07071388     0.02600
C1356       C  0.68307523  0.75320478  0.11792328    -0.04200
C1357       C  0.67130889  0.73807317  0.14113206    -0.00400
C1358       C  0.65453778  0.73735028  0.11660811    -0.03000
C1359       C  0.65585204  0.78220206  0.99719674     0.36300
C1360       C  0.67640635  0.72336193  0.19030323     0.39900
C1361       C  0.68967633  0.78328320  0.04532599     0.39000
C1362       C  0.64248114  0.72174405  0.14024793     0.36000
C1363       C  0.64109594  0.70283938  0.00055625     0.36600
C1364       C  0.59326069  0.79386464  0.00781897     0.39900
N1365       N  0.69919124  0.79506696  0.02511187    -0.38200
N1366       N  0.65177027  0.79396395  0.95800154    -0.39800
N1367       N  0.68047499  0.71161281  0.22953085    -0.37500
N1368       N  0.63283098  0.70937090  0.15912019    -0.39900
N1369       N  0.62766259  0.81511560  0.10292660    -0.39700
N1370       N  0.58496385  0.81508382  0.00367782    -0.37300
N1371       N  0.60701335  0.67621788  0.91618165    -0.38400
N1372       N  0.65137962  0.68611444  0.99560460    -0.40000
C1373       C  0.75660963  0.81306104  0.96822691    -0.04900
C1374       C  0.75664866  0.84449321  0.97357945     0.09200
C1375       C  0.75617652  0.85669172  0.02129481    -0.02300
C1376       C  0.75452796  0.83763629  0.06255956    -0.00600
C1377       C  0.75347787  0.80620269  0.05653942    -0.04200
C1378       C  0.75521296  0.79389923  0.00970454     0.02800
C1379       C  0.75632285  0.86504806  0.92862082     0.09700
C1380       C  0.75708731  0.88897997  0.02761474     0.35500
C1381       C  0.75470518  0.76161816  0.00312679     0.39000
C1382       C  0.74127573  0.87845573  0.90437946    -0.04600
C1383       C  0.74118185  0.90118431  0.86703447     0.02600
C1384       C  0.75616701  0.91075372  0.85387871    -0.04200
C1385       C  0.77104132  0.89547705  0.87507399    -0.00400
C1386       C  0.77106270  0.87251382  0.91210212    -0.03000
C1387       C  0.72591437  0.86911997  0.91857738     0.36300
C1388       C  0.78654999  0.90473485  0.86173459     0.39900
C1389       C  0.72565257  0.91483506  0.84225232     0.39000
C1390       C  0.78631961  0.85707305  0.93422306     0.36000
C1391       C  0.75737998  0.80057109  0.91939905     0.36600
C1392       C  0.75407679  0.85036985  0.11145658     0.39900
N1393       N  0.71327853  0.92568809  0.82230990    -0.38200
N1394       N  0.71366605  0.86158407  0.92984850    -0.39800
N1395       N  0.79895154  0.91213198  0.85133858    -0.37500
N1396       N  0.79846940  0.84454710  0.95147355    -0.39900
N1397       N  0.75781939  0.91472975  0.03269240    -0.39700
N1398       N  0.75377250  0.86043714  0.15056176    -0.37300
N1399       N  0.75436367  0.73588301  0.99769094    -0.38400
N1400       N  0.75799214  0.79075485  0.88033072    -0.40000
C1401       C  0.74461237  0.61162791  0.91678242    -0.04900
C1402       C  0.74582245  0.60082912  0.96694514     0.09200
C1403       C  0.74804811  0.56990217  0.97813332    -0.02300
C1404       C  0.74934257  0.54973598  0.93935092    -0.00600
C1405       C  0.74878681  0.56058193  0.88895685    -0.04200
C1406       C  0.74618972  0.59169808  0.87793961     0.02800
C1407       C  0.74473332  0.62224677  0.00812362     0.09700
C1408       C  0.74926341  0.55896907  0.02994256     0.35500
C1409       C  0.74476539  0.60336980  0.82653123     0.39000
C1410       C  0.72927640  0.62897070  0.02014674    -0.04600
C1411       C  0.72808350  0.65029898  0.05730837     0.02600
C1412       C  0.74240777  0.66560489  0.08189875    -0.04200
C1413       C  0.75798573  0.65795017  0.07074734    -0.00400
C1414       C  0.75909253  0.63649384  0.03380240    -0.03000
C1415       C  0.71449360  0.61495372  0.99219852     0.36300
C1416       C  0.77297179  0.67206240  0.09724755     0.39900
C1417       C  0.71193653  0.65736356  0.06797815     0.39000
C1418       C  0.77495561  0.62983017  0.02074933     0.36000
C1419       C  0.74171340  0.64341168  0.90534748     0.36600
C1420       C  0.75175192  0.51799288  0.95224936     0.39900
N1421       N  0.69902041  0.66280303  0.07637614    -0.38200
N1422       N  0.70275222  0.60391966  0.96935045    -0.39800
N1423       N  0.78488848  0.68341806  0.11834313    -0.37500
N1424       N  0.78759397  0.62469663  0.01010482    -0.39900
N1425       N  0.75027643  0.55032884  0.07130230    -0.39700
N1426       N  0.75357051  0.49270191  0.96280789    -0.37300
N1427       N  0.74363696  0.61283746  0.78561001    -0.38400
N1428       N  0.73934110  0.66877271  0.89654564    -0.40000
C1429       C  0.98026185  0.51737051  0.97746935    -0.04900
C1430       C  0.98832936  0.99031300  0.97104169     0.09200
C1431       C  0.98022930  0.96283763  0.97566293    -0.02300
C1432       C  0.96491978  0.96225549  0.99166234    -0.00600
C1433       C  0.95798711  0.98916494  0.00655164    -0.04200
C1434       C  0.96479054  0.51687542  0.99253087     0.02800
C1435       C  0.00487597  0.99055125  0.95586810     0.09700
C1436       C  0.98762284  0.93507849  0.96314289     0.35500
C1437       C  0.95551082  0.54478496  0.98859998     0.39000
C1438       C  0.01893379  0.98027286  0.99020646    -0.04600
C1439       C  0.03411493  0.97666066  0.97422799     0.02600
C1440       C  0.03623171  0.98800067  0.92573014    -0.04200
C1441       C  0.02158178  0.49637308  0.89046798    -0.00400
C1442       C  0.00614139  0.49779440  0.90567213    -0.03000
C1443       C  0.01761182  0.97251489  0.04198723     0.36300
C1444       C  0.02172952  0.50118581  0.83718224     0.39900
C1445       C  0.04633155  0.95728678  0.00541303     0.39000
C1446       C  0.99131510  0.50589882  0.86913524     0.36000
C1447       C  0.98783531  0.54582239  0.96788451     0.36600
C1448       C  0.95599554  0.93407416  0.98904241     0.39900
N1449       N  0.05590262  0.94165649  0.03065389    -0.38200
N1450       N  0.01653664  0.96648221  0.08326523    -0.39800
N1451       N  0.02119032  0.50504518  0.79427158    -0.37500
N1452       N  0.97945546  0.51237970  0.84027505    -0.39900
N1453       N  0.99358135  0.91301753  0.95321416    -0.39700
N1454       N  0.94912300  0.91132845  0.98668199    -0.37300
N1455       N  0.94842515  0.56740720  0.98540839    -0.38400
N1456       N  0.99383924  0.56846791  0.95988822    -0.40000
C1457       C  0.86686763  0.97197786  0.96040657    -0.04900
C1458       C  0.86410220  0.99283236  0.91941906     0.09200
C1459       C  0.87692884  0.51218378  0.91190714    -0.02300
C1460       C  0.89244488  0.51075871  0.94502011    -0.00600
C1461       C  0.89561952  0.98908742  0.98544357    -0.04200
C1462       C  0.88239309  0.97045577  0.99388985     0.02800
C1463       C  0.84715274  0.99647835  0.88723451     0.09700
C1464       C  0.87399953  0.53407086  0.87034283     0.35500
C1465       C  0.88416280  0.95062352  0.03795394     0.39000
C1466       C  0.83651059  0.51912859  0.89832057    -0.04600
C1467       C  0.82007540  0.52129721  0.87117182     0.02600
C1468       C  0.81420178  0.00115216  0.83157664    -0.04200
C1469       C  0.82525546  0.97958425  0.81868525    -0.00400
C1470       C  0.84159779  0.97713490  0.84667468    -0.03000
C1471       C  0.84245703  0.53990252  0.93859789     0.36300
C1472       C  0.81989755  0.95998209  0.77629805     0.39900
C1473       C  0.80903631  0.54313043  0.88654507     0.39000
C1474       C  0.85270238  0.95454403  0.83399648     0.36000
C1475       C  0.85353610  0.95227327  0.96835354     0.36600
C1476       C  0.90458156  0.53354556  0.93958903     0.39900
N1477       N  0.80027856  0.56047809  0.89918328    -0.38200
N1478       N  0.84730191  0.55654407  0.97048734    -0.39800
N1479       N  0.81557878  0.94440106  0.74243617    -0.37500
N1480       N  0.86152592  0.93647413  0.82377500    -0.39900
N1481       N  0.87164031  0.55153829  0.83723930    -0.39700
N1482       N  0.91404002  0.55205409  0.93484053    -0.37300
N1483       N  0.88488617  0.93508196  0.07335479    -0.38400
N1484       N  0.84287765  0.93652557  0.97430890    -0.40000
C1485       C  0.33353847  0.72414485  0.90735907    -0.04900
C1486       C  0.34554601  0.74210529  0.89042807     0.09200
C1487       C  0.34112824  0.75957444  0.84554162    -0.02300
C1488       C  0.32463808  0.75988917  0.81841001    -0.00600
C1489       C  0.31242975  0.74227727  0.83561869    -0.04200
C1490       C  0.31702530  0.72448523  0.88061279     0.02800
C1491       C  0.36239830  0.74500873  0.92295071     0.09700
C1492       C  0.35357805  0.77774039  0.82799943     0.35500
C1493       C  0.30458773  0.70860516  0.90235038     0.39000
C1494       C  0.37559614  0.72679115  0.91534836    -0.04600
C1495       C  0.39123275  0.72876597  0.94782960     0.02600
C1496       C  0.39391192  0.74938033  0.98844323    -0.04200
C1497       C  0.38027401  0.76702616  0.99636230    -0.00400
C1498       C  0.36483827  0.76533460  0.96299052    -0.03000
C1499       C  0.37295405  0.70572891  0.87417902     0.36300
C1500       C  0.38145038  0.78649289  0.03931564     0.39900
C1501       C  0.40404511  0.70766706  0.94140643     0.39000
C1502       C  0.35129408  0.78477169  0.96962029     0.36000
C1503       C  0.33814348  0.70599266  0.95342375     0.36600
C1504       C  0.32025264  0.77893335  0.77342202     0.39900
N1505       N  0.41419957  0.69074797  0.93609752    -0.38200
N1506       N  0.37080566  0.68902191  0.84120469    -0.39800
N1507       N  0.38149980  0.80172024  0.07366866    -0.37500
N1508       N  0.34052711  0.80038099  0.97459680    -0.39900
N1509       N  0.36359323  0.79210539  0.81415063    -0.39700
N1510       N  0.31674730  0.79440025  0.73783401    -0.37300
N1511       N  0.29472470  0.69627093  0.92037375    -0.38400
N1512       N  0.34185383  0.69152212  0.99012234    -0.40000
C1513       C  0.12714358  0.96499606  0.00804847    -0.04900
C1514       C  0.13037174  0.98880216  0.04229817     0.09200
C1515       C  0.11814179  0.51086848  0.04265955    -0.02300
C1516       C  0.10292129  0.50961263  0.00816430    -0.00600
C1517       C  0.09964953  0.98588365  0.97318245    -0.04200
C1518       C  0.11184209  0.96340239  0.97383974     0.02800
C1519       C  0.14740840  0.99279506  0.07310840     0.09700
C1520       C  0.12158783  0.53574954  0.07704838     0.35500
C1521       C  0.10879774  0.93838190  0.93974332     0.39000
C1522       C  0.15831359  0.51293706  0.05541584    -0.04600
C1523       C  0.17480907  0.51534766  0.08129229     0.02600
C1524       C  0.18054894  0.99792478  0.12602385    -0.04200
C1525       C  0.16932748  0.97895003  0.14522638    -0.00400
C1526       C  0.15288412  0.97605277  0.11842523    -0.03000
C1527       C  0.15266798  0.53060159  0.00933410     0.36300
C1528       C  0.17459922  0.96287655  0.19310120     0.39900
C1529       C  0.18598766  0.53462346  0.05969403     0.39000
C1530       C  0.14169137  0.95543968  0.13694884     0.36000
C1531       C  0.13987900  0.94265820  0.00693664     0.36600
C1532       C  0.09131449  0.53438450  0.00574336     0.39900
N1533       N  0.19477742  0.55002482  0.04206653    -0.38200
N1534       N  0.14822996  0.54482524  0.97273864    -0.39800
N1535       N  0.17886860  0.95030614  0.23151028    -0.37500
N1536       N  0.13285433  0.93879263  0.15177416    -0.39900
N1537       N  0.12439450  0.55570781  0.10420486    -0.39700
N1538       N  0.08213374  0.55426973  0.00335395    -0.37300
N1539       N  0.10679802  0.91814798  0.91298532    -0.38400
N1540       N  0.15009514  0.92495405  0.00611572    -0.40000
C1541       C  0.26225919  0.84459872  0.95808659    -0.04900
C1542       C  0.24788853  0.86247339  0.95343893     0.09200
C1543       C  0.23568162  0.86138476  0.90874504    -0.02300
C1544       C  0.23768573  0.84207756  0.86934619    -0.00600
C1545       C  0.25198057  0.82396510  0.87423684    -0.04200
C1546       C  0.26437779  0.82560619  0.91851460     0.02800
C1547       C  0.24595450  0.88325531  0.99508914     0.09700
C1548       C  0.22106040  0.88016714  0.90342329     0.35500
C1549       C  0.27904611  0.80679759  0.92436728     0.39000
C1550       C  0.25438770  0.91083339  0.99960149    -0.04600
C1551       C  0.25293875  0.93042601  0.03903911     0.02600
C1552       C  0.24280011  0.92276596  0.07470224    -0.04200
C1553       C  0.23422087  0.89496040  0.06952771    -0.00400
C1554       C  0.23592853  0.87530484  0.03017012    -0.03000
C1555       C  0.26439709  0.91931177  0.96272918     0.36300
C1556       C  0.22360449  0.88621402  0.10443515     0.39900
C1557       C  0.26152386  0.95899052  0.04087666     0.39000
C1558       C  0.22736203  0.84672978  0.02558625     0.36000
C1559       C  0.27471311  0.84533166  0.00421840     0.36600
C1560       C  0.22524788  0.84136940  0.82321815     0.39900
N1561       N  0.26843192  0.98167780  0.04192296    -0.38200
N1562       N  0.27235699  0.92610356  0.93333247    -0.39800
N1563       N  0.21502148  0.87913464  0.13190978    -0.37500
N1564       N  0.22054253  0.82392409  0.02172778    -0.39900
N1565       N  0.20938130  0.89513088  0.89930089    -0.39700
N1566       N  0.21538386  0.84088470  0.78625072    -0.37300
N1567       N  0.29072910  0.79179318  0.92896177    -0.38400
N1568       N  0.28460448  0.84591688  0.04111108    -0.40000
C1569       C  0.25628680  0.62659269  0.91565902    -0.04900
C1570       C  0.24358278  0.62923354  0.94367682     0.09200
C1571       C  0.23245134  0.65366742  0.93384239    -0.02300
C1572       C  0.23441535  0.67604468  0.89762823    -0.00600
C1573       C  0.24741218  0.67389711  0.87024768    -0.04200
C1574       C  0.25810161  0.64860302  0.87867318     0.02800
C1575       C  0.24250153  0.60706713  0.98546708     0.09700
C1576       C  0.21921967  0.65618131  0.96210565     0.35500
C1577       C  0.27167061  0.64597135  0.85180965     0.39000
C1578       C  0.24765846  0.61533089  0.03649368    -0.04600
C1579       C  0.24700596  0.59437422  0.07609286     0.02600
C1580       C  0.24128758  0.56495263  0.06483930    -0.04200
C1581       C  0.23625100  0.55661605  0.01363669    -0.00400
C1582       C  0.23679574  0.57765328  0.97417581    -0.03000
C1583       C  0.25388008  0.64536469  0.04814448     0.36300
C1584       C  0.23003643  0.52657970  0.00131885     0.39900
C1585       C  0.25287499  0.60275972  0.12825986     0.39000
C1586       C  0.23143993  0.56901104  0.92187618     0.36000
C1587       C  0.26798946  0.60185531  0.92668243     0.36600
C1588       C  0.22304983  0.70137163  0.88898399     0.39900
N1589       N  0.25763424  0.60944149  0.16985016    -0.38200
N1590       N  0.25877307  0.66938746  0.05724732    -0.39800
N1591       N  0.22512437  0.50260889  0.99174702    -0.37500
N1592       N  0.22723089  0.56187497  0.88027813    -0.39900
N1593       N  0.20874349  0.65832550  0.98489101    -0.39700
N1594       N  0.21405983  0.72167130  0.88238221    -0.37300
N1595       N  0.28254711  0.64384726  0.83061129    -0.38400
N1596       N  0.27730373  0.58212052  0.93570086    -0.40000
C1597       C  0.06643775  0.57013212  0.75189213    -0.04900
C1598       C  0.07829489  0.59163801  0.77257652     0.09200
C1599       C  0.09025816  0.58372936  0.81580200    -0.02300
C1600       C  0.08919181  0.55594948  0.84155374    -0.00600
C1601       C  0.07620272  0.53579538  0.82397156    -0.04200
C1602       C  0.06575348  0.54201550  0.77671876     0.02800
C1603       C  0.07788210  0.62274755  0.74938582     0.09700
C1604       C  0.10354637  0.60445123  0.83402635     0.35500
C1605       C  0.05477483  0.51889484  0.75267501     0.39000
C1606       C  0.07095810  0.64686401  0.77173176    -0.04600
C1607       C  0.06917115  0.67558091  0.74766374     0.02600
C1608       C  0.07413243  0.68035023  0.70078215    -0.04200
C1609       C  0.08085815  0.65601820  0.67820348    -0.00400
C1610       C  0.08327161  0.62773024  0.70328146    -0.03000
C1611       C  0.06489246  0.64165471  0.81827395     0.36300
C1612       C  0.08452163  0.65960023  0.62778689     0.39900
C1613       C  0.06108440  0.69959776  0.76925628     0.39000
C1614       C  0.09092556  0.60342676  0.68099613     0.36000
C1615       C  0.05459318  0.57732785  0.70590594     0.36600
C1616       C  0.10161020  0.54841639  0.88566983     0.39900
N1617       N  0.05456535  0.71868396  0.78649398    -0.38200
N1618       N  0.06000440  0.63735301  0.85529536    -0.39800
N1619       N  0.08737697  0.66238328  0.58750033    -0.37500
N1620       N  0.09706799  0.58405594  0.66326407    -0.39900
N1621       N  0.11418842  0.62094755  0.84836043    -0.39700
N1622       N  0.11213151  0.54325281  0.91988701    -0.37300
N1623       N  0.04638447  0.50019514  0.73255486    -0.38400
N1624       N  0.04516361  0.58318909  0.66921622    -0.40000
C1625       C  0.08452982  0.82029138  0.77229532    -0.04900
C1626       C  0.07737182  0.84745895  0.75022734     0.09200
C1627       C  0.06937321  0.84783377  0.69893070    -0.02300
C1628       C  0.06854335  0.82147390  0.67044451    -0.00600
C1629       C  0.07303143  0.79310190  0.69474430    -0.04200
C1630       C  0.08153730  0.79299518  0.74601902     0.02800
C1631       C  0.07705005  0.87490853  0.78196159     0.09700
C1632       C  0.06123161  0.87500473  0.67576213     0.35500
C1633       C  0.08688979  0.76521629  0.77323703     0.39000
C1634       C  0.08464014  0.90205009  0.77078128    -0.04600
C1635       C  0.08206838  0.92879756  0.79595017     0.02600
C1636       C  0.07349463  0.92796917  0.83690465    -0.04200
C1637       C  0.06787776  0.89957071  0.85211008    -0.00400
C1638       C  0.06851071  0.87400208  0.82256874    -0.03000
C1639       C  0.09513990  0.90235877  0.73331268     0.36300
C1640       C  0.06196738  0.89588734  0.89930839     0.39900
C1641       C  0.08773377  0.95701429  0.77776359     0.39000
C1642       C  0.05995320  0.84681126  0.83339155     0.36000
C1643       C  0.09466803  0.82041382  0.82281187     0.36600
C1644       C  0.06366221  0.82421398  0.61572466     0.39900
N1645       N  0.09234443  0.97932884  0.76262248    -0.38200
N1646       N  0.10360021  0.90241191  0.70365878    -0.39800
N1647       N  0.05722621  0.89265132  0.93681982    -0.37500
N1648       N  0.05315319  0.82508829  0.84176225    -0.39900
N1649       N  0.05460852  0.89655740  0.65732278    -0.39700
N1650       N  0.05978682  0.82666396  0.57213804    -0.37300
N1651       N  0.09151626  0.74346365  0.79590681    -0.38400
N1652       N  0.10276491  0.82062727  0.86305473    -0.40000
C1653       C  0.91587075  0.62322979  0.24718534    -0.04900
C1654       C  0.91772021  0.62468932  0.19632203     0.09200
C1655       C  0.91815090  0.65312604  0.17217268    -0.02300
C1656       C  0.91803079  0.67982972  0.19998211    -0.00600
C1657       C  0.91826183  0.67819358  0.25261215    -0.04200
C1658       C  0.91603372  0.64973573  0.27504144     0.02800
C1659       C  0.91997061  0.59606639  0.16957087     0.09700
C1660       C  0.91933852  0.65484202  0.11918448     0.35500
C1661       C  0.91353822  0.64730170  0.32668142     0.39000
C1662       C  0.90659172  0.58280491  0.13691240    -0.04600
C1663       C  0.90878887  0.55568560  0.11226701     0.02600
C1664       C  0.92435910  0.54081144  0.12149661    -0.04200
C1665       C  0.93743551  0.55333787  0.15742886    -0.00400
C1666       C  0.93534525  0.58106439  0.18007824    -0.03000
C1667       C  0.89046137  0.59710246  0.12904928     0.36300
C1668       C  0.95313702  0.53768013  0.17197719     0.39900
C1669       C  0.89494096  0.54413268  0.07647340     0.39000
C1670       C  0.94910897  0.59439491  0.21434301     0.36000
C1671       C  0.91428027  0.59415592  0.27129123     0.36600
C1672       C  0.91750448  0.70875977  0.17415354     0.39900
N1673       N  0.88338408  0.53594176  0.04864026    -0.38200
N1674       N  0.87758149  0.60843792  0.12308132    -0.39800
N1675       N  0.96573471  0.52544401  0.18342337    -0.37500
N1676       N  0.96003178  0.60515811  0.24164358    -0.39900
N1677       N  0.92032582  0.65623401  0.07688921    -0.39700
N1678       N  0.91655297  0.73162195  0.15248649    -0.37300
N1679       N  0.91131329  0.64382492  0.36749630    -0.38400
N1680       N  0.91307248  0.57092795  0.29036378    -0.40000
C1681       C  0.93468149  0.81963712  0.18829476    -0.04900
C1682       C  0.92456204  0.84388289  0.19738662     0.09200
C1683       C  0.91484710  0.84004878  0.23495825    -0.02300
C1684       C  0.91602506  0.81333917  0.26490980    -0.00600
C1685       C  0.92489841  0.78819757  0.25281257    -0.04200
C1686       C  0.93469918  0.79192178  0.21542347     0.02800
C1687       C  0.92495278  0.87406675  0.17024920     0.09700
C1688       C  0.90359556  0.86371522  0.24291240     0.35500
C1689       C  0.94575903  0.76791376  0.20753538     0.39000
C1690       C  0.91892241  0.87720373  0.11748433    -0.04600
C1691       C  0.92002456  0.90512139  0.09210460     0.02600
C1692       C  0.92594630  0.93099481  0.11953926    -0.04200
C1693       C  0.93152484  0.92814287  0.17240862    -0.00400
C1694       C  0.93144612  0.89977086  0.19739059    -0.03000
C1695       C  0.91158676  0.85164443  0.08909205     0.36300
C1696       C  0.93787722  0.95426314  0.20097117     0.39900
C1697       C  0.91538555  0.90703152  0.03729213     0.39000
C1698       C  0.93861822  0.89680986  0.25091053     0.36000
C1699       C  0.94552181  0.82346110  0.15218847     0.36600
C1700       C  0.90939555  0.81292855  0.31105630     0.39900
N1701       N  0.91164408  0.90859441  0.99358383    -0.38200
N1702       N  0.90573766  0.83128047  0.06631502    -0.39800
N1703       N  0.94289526  0.97502059  0.22414349    -0.37500
N1704       N  0.94434054  0.89433423  0.29360111    -0.39900
N1705       N  0.89454635  0.88257873  0.24883353    -0.39700
N1706       N  0.90422581  0.81290488  0.34808894    -0.37300
N1707       N  0.95462500  0.74873804  0.20160950    -0.38400
N1708       N  0.95415833  0.82640258  0.12329405    -0.40000
C1709       C  0.97762849  0.70207084  0.45566768    -0.04900
C1710       C  0.98454910  0.72953775  0.47382452     0.09200
C1711       C  0.97482446  0.75582593  0.46460620    -0.02300
C1712       C  0.95908148  0.75525925  0.43237673    -0.00600
C1713       C  0.95314234  0.72851673  0.40687870    -0.04200
C1714       C  0.96167472  0.70128848  0.42475115     0.02800
C1715       C  0.00186990  0.73061689  0.50435566     0.09700
C1716       C  0.98115327  0.78357858  0.48810229     0.35500
C1717       C  0.95359444  0.67238151  0.41779628     0.39000
C1718       C  0.01538402  0.73426152  0.47997477    -0.04600
C1719       C  0.03171847  0.73689885  0.50831986     0.02600
C1720       C  0.03497664  0.73388345  0.56238801    -0.04200
C1721       C  0.02086928  0.73096989  0.58624538    -0.00400
C1722       C  0.00466110  0.72906994  0.55743601    -0.03000
C1723       C  0.01232206  0.73559236  0.42495331     0.36300
C1724       C  0.02269690  0.73072576  0.64110064     0.39900
C1725       C  0.04432979  0.74525767  0.48018244     0.39000
C1726       C  0.99068281  0.72543548  0.58256649     0.36000
C1727       C  0.98694066  0.67446038  0.46941653     0.36600
C1728       C  0.94894290  0.78221511  0.42664201     0.39900
N1729       N  0.05371458  0.75219633  0.45516952    -0.38200
N1730       N  0.00982404  0.73645701  0.38112324    -0.39800
N1731       N  0.02407026  0.73062184  0.68473214    -0.37500
N1732       N  0.97955415  0.72251032  0.60261472    -0.39900
N1733       N  0.98623431  0.80562451  0.50713137    -0.39700
N1734       N  0.94091786  0.80379245  0.42224841    -0.37300
N1735       N  0.94754175  0.64889071  0.41333839    -0.38400
N1736       N  0.99440232  0.65248737  0.48035697    -0.40000
C1737       C  0.62139935  0.02664889  0.57644807    -0.04900
C1738       C  0.63425126  0.00662863  0.59757646     0.09200
C1739       C  0.63119005  0.98359883  0.63124257    -0.02300
C1740       C  0.61526606  0.97987480  0.64257838    -0.00600
C1741       C  0.60209921  0.99940322  0.62038434    -0.04200
C1742       C  0.60553996  0.02349573  0.58856280     0.02800
C1743       C  0.65101327  0.00906362  0.58368884     0.09700
C1744       C  0.64458173  0.96355927  0.65426811     0.35500
C1745       C  0.59318444  0.54652354  0.57117402     0.39000
C1746       C  0.66230409  0.53112963  0.60496263    -0.04600
C1747       C  0.67857775  0.53131907  0.59540120     0.02600
C1748       C  0.68413391  0.00841307  0.56606857    -0.04200
C1749       C  0.67172992  0.98953129  0.53842441    -0.00400
C1750       C  0.65557733  0.98905357  0.54901772    -0.03000
C1751       C  0.65721724  0.55342002  0.63751934     0.36300
C1752       C  0.67435825  0.97319812  0.49481213     0.39900
C1753       C  0.68940206  0.55569094  0.61551408     0.39000
C1754       C  0.64341977  0.96797500  0.52377721     0.36000
C1755       C  0.62453219  0.55049883  0.54200086     0.36600
C1756       C  0.61294070  0.95588380  0.67759124     0.39900
N1757       N  0.69774135  0.57550564  0.63154061    -0.38200
N1758       N  0.65312069  0.57128931  0.66322523    -0.39800
N1759       N  0.67563507  0.95988352  0.45931039    -0.37500
N1760       N  0.63367700  0.95118427  0.50398331    -0.39900
N1761       N  0.65525843  0.94758979  0.67251792    -0.39700
N1762       N  0.61220734  0.93661636  0.70659011    -0.37300
N1763       N  0.58353299  0.56532064  0.55783726    -0.38400
N1764       N  0.62709363  0.56950926  0.51456918    -0.40000
C1765       C  0.86150066  0.75447906  0.32216131    -0.04900
C1766       C  0.85632456  0.73372169  0.35603630     0.09200
C1767       C  0.86795924  0.71329345  0.38329444    -0.02300
C1768       C  0.88485087  0.71530655  0.37983828    -0.00600
C1769       C  0.89003800  0.73483091  0.34306330    -0.04200
C1770       C  0.87769267  0.75321876  0.31231905     0.02800
C1771       C  0.83868821  0.73434184  0.36361602     0.09700
C1772       C  0.86249207  0.68999518  0.41483680     0.35500
C1773       C  0.88084262  0.77055347  0.26913651     0.39000
C1774       C  0.82553241  0.72873778  0.32275028    -0.04600
C1775       C  0.80902046  0.73493520  0.32681779     0.02600
C1776       C  0.80530827  0.74449749  0.37333762    -0.04200
C1777       C  0.81849935  0.74718002  0.41565139    -0.00400
C1778       C  0.83504267  0.74338963  0.41018107    -0.03000
C1779       C  0.82909985  0.71778967  0.27552152     0.36300
C1780       C  0.81517690  0.75352160  0.46543560     0.39900
C1781       C  0.79628505  0.73349852  0.28157643     0.39000
C1782       C  0.84836706  0.75019256  0.45208395     0.36000
C1783       C  0.85010415  0.77770803  0.29781661     0.36600
C1784       C  0.89657941  0.69721074  0.41517746     0.39900
N1785       N  0.78663664  0.73230433  0.24423593    -0.38200
N1786       N  0.83197449  0.70930801  0.23778768    -0.39800
N1787       N  0.81250257  0.75874361  0.50502494    -0.37500
N1788       N  0.85899412  0.75566896  0.48546766    -0.39900
N1789       N  0.85810987  0.67132739  0.43972972    -0.39700
N1790       N  0.90570128  0.68334149  0.44512336    -0.37300
N1791       N  0.88231424  0.78410264  0.23309492    -0.38400
N1792       N  0.84097251  0.79622567  0.27889121    -0.40000
C1793       C  0.75516807  0.90868622  0.53653135    -0.04900
C1794       C  0.74758676  0.89666467  0.48955550     0.09200
C1795       C  0.73391118  0.91198971  0.46016588    -0.02300
C1796       C  0.72788356  0.93877786  0.47756797    -0.00600
C1797       C  0.73459134  0.94961530  0.52655437    -0.04200
C1798       C  0.74835410  0.93416900  0.55582602     0.02800
C1799       C  0.75386363  0.86777749  0.47116486     0.09700
C1800       C  0.72583235  0.89994168  0.41199961     0.35500
C1801       C  0.75512218  0.94285405  0.60713631     0.39000
C1802       C  0.75305337  0.84035296  0.49789925    -0.04600
C1803       C  0.75941153  0.81359986  0.48151161     0.02600
C1804       C  0.76356528  0.81232930  0.43262336    -0.04200
C1805       C  0.76553385  0.84043898  0.40786098    -0.00400
C1806       C  0.76117900  0.86782900  0.42790309    -0.03000
C1807       C  0.74576710  0.83951592  0.54285747     0.36300
C1808       C  0.77260352  0.84163005  0.36247422     0.39900
C1809       C  0.76423042  0.78981521  0.51903143     0.39000
C1810       C  0.76450271  0.89627007  0.40451959     0.36000
C1811       C  0.77006448  0.89467834  0.56525588     0.36600
C1812       C  0.71509769  0.95565246  0.44375803     0.39900
N1813       N  0.76829623  0.77127314  0.54975388    -0.38200
N1814       N  0.73995568  0.83875502  0.57870407    -0.39800
N1815       N  0.77827595  0.84265833  0.32635923    -0.37500
N1816       N  0.76723559  0.91901825  0.38624785    -0.39900
N1817       N  0.71941513  0.89036107  0.37355024    -0.39700
N1818       N  0.70514536  0.96920565  0.41599258    -0.37300
N1819       N  0.76094284  0.94843321  0.64852251    -0.38400
N1820       N  0.78193121  0.88344086  0.58808372    -0.40000
C1821       C  0.74465808  0.60959040  0.53455664    -0.04900
C1822       C  0.74701972  0.61056249  0.48395058     0.09200
C1823       C  0.74487965  0.58404125  0.45558950    -0.02300
C1824       C  0.73942823  0.55731701  0.47655347    -0.00600
C1825       C  0.73571855  0.55703970  0.52565025    -0.04200
C1826       C  0.73892890  0.58303914  0.55519521     0.02800
C1827       C  0.75151432  0.63966949  0.46045053     0.09700
C1828       C  0.74813778  0.58441968  0.40453599     0.35500
C1829       C  0.73646987  0.58243959  0.60709937     0.39000
C1830       C  0.76802634  0.64563456  0.45646859    -0.04600
C1831       C  0.77231327  0.67354596  0.43638430     0.02600
C1832       C  0.76013865  0.69605943  0.42092848    -0.04200
C1833       C  0.74347713  0.68948332  0.42292031    -0.00400
C1834       C  0.73920320  0.66145227  0.44242569    -0.03000
C1835       C  0.78065598  0.62305850  0.47377273     0.36300
C1836       C  0.73063027  0.71141359  0.40390844     0.39900
C1837       C  0.78937044  0.67899944  0.43287322     0.39000
C1838       C  0.72206128  0.65488050  0.44363404     0.36000
C1839       C  0.74824406  0.63595599  0.56545852     0.36600
C1840       C  0.73779468  0.53013010  0.44751407     0.39900
N1841       N  0.80309093  0.68239168  0.43028133    -0.38200
N1842       N  0.79068680  0.60495056  0.48748840    -0.39800
N1843       N  0.72045656  0.72903403  0.38873024    -0.37500
N1844       N  0.70836618  0.64963200  0.44437425    -0.39900
N1845       N  0.75083294  0.58479746  0.36389836    -0.39700
N1846       N  0.73690744  0.50867094  0.42368082    -0.37300
N1847       N  0.73472381  0.58208576  0.64874793    -0.38400
N1848       N  0.75123580  0.65694280  0.59018454    -0.40000
C1849       C  0.33600624  0.52510748  0.37331531    -0.04900
C1850       C  0.34412386  0.99714310  0.37660822     0.09200
C1851       C  0.33509576  0.97074927  0.38091007    -0.02300
C1852       C  0.31797153  0.97219433  0.38067938    -0.00600
C1853       C  0.30987571  0.00043684  0.38320129    -0.04200
C1854       C  0.31900563  0.52683679  0.37519041     0.02800
C1855       C  0.36157467  0.99535408  0.36804933     0.09700
C1856       C  0.34342551  0.94182705  0.38396151     0.35500
C1857       C  0.31097300  0.55568676  0.36268960     0.39000
C1858       C  0.37490571  0.50412366  0.40567916    -0.04600
C1859       C  0.39113870  0.50490916  0.39580590     0.02600
C1860       C  0.39459403  0.99456907  0.34891670    -0.04200
C1861       C  0.38079690  0.98571672  0.31115723    -0.00400
C1862       C  0.36453315  0.98678250  0.32060485    -0.03000
C1863       C  0.37175417  0.51327371  0.45441446     0.36300
C1864       C  0.38258055  0.97558867  0.26169843     0.39900
C1865       C  0.40371507  0.51932063  0.43273015     0.39000
C1866       C  0.35057495  0.97975553  0.28060219     0.36000
C1867       C  0.34511836  0.55223583  0.36572991     0.36600
C1868       C  0.30866975  0.94450071  0.37154708     0.39900
N1869       N  0.41348523  0.53100722  0.46277161    -0.38200
N1870       N  0.36917990  0.52061947  0.49315210    -0.39800
N1871       N  0.38320277  0.96778407  0.22133794    -0.37500
N1872       N  0.33946463  0.97428149  0.24872413    -0.39900
N1873       N  0.35008292  0.91879523  0.38657188    -0.39700
N1874       N  0.30135615  0.92232728  0.36396462    -0.37300
N1875       N  0.30517730  0.57920805  0.35233248    -0.38400
N1876       N  0.35242838  0.57379124  0.35985311    -0.40000
C1877       C  0.15869608  0.72166550  0.55811325    -0.04900
C1878       C  0.15041576  0.74763965  0.56893458     0.09200
C1879       C  0.15919781  0.77484521  0.57611357    -0.02300
C1880       C  0.17601269  0.77624841  0.57149328    -0.00600
C1881       C  0.18468196  0.74995701  0.56098487    -0.04200
C1882       C  0.17587576  0.72213477  0.55938692     0.02800
C1883       C  0.13320080  0.74515526  0.57988344     0.09700
C1884       C  0.15105759  0.80140250  0.59032968     0.35500
C1885       C  0.18435742  0.69333881  0.56651897     0.39000
C1886       C  0.13054690  0.72807458  0.62230169    -0.04600
C1887       C  0.11447284  0.72446465  0.63242213     0.02600
C1888       C  0.10062167  0.73916104  0.60128170    -0.04200
C1889       C  0.10367052  0.75787233  0.56049081    -0.00400
C1890       C  0.11968307  0.75995535  0.54897792    -0.03000
C1891       C  0.14455792  0.71412981  0.65617022     0.36300
C1892       C  0.09074282  0.77693719  0.53198869     0.39900
C1893       C  0.11288219  0.70561682  0.67577142     0.39000
C1894       C  0.12231740  0.77772939  0.50540910     0.36000
C1895       C  0.14961450  0.69372289  0.54852481     0.36600
C1896       C  0.18426162  0.80483442  0.58157252     0.39900
N1897       N  0.11258364  0.69101860  0.71169717    -0.38200
N1898       N  0.15566442  0.70277496  0.68285177    -0.39800
N1899       N  0.08072102  0.79260029  0.50887328    -0.37500
N1900       N  0.12449650  0.79209158  0.47096428    -0.39900
N1901       N  0.14460176  0.82264581  0.60138980    -0.39700
N1902       N  0.19014043  0.82829407  0.58924901    -0.37300
N1903       N  0.19093469  0.67019108  0.57241816    -0.38400
N1904       N  0.14238077  0.67146787  0.54111122    -0.40000
C1905       C  0.24932477  0.83709792  0.47308143    -0.04900
C1906       C  0.24640094  0.86390927  0.49748864     0.09200
C1907       C  0.23895825  0.86199800  0.54052052    -0.02300
C1908       C  0.23455135  0.83377565  0.55879634    -0.00600
C1909       C  0.23601404  0.80738041  0.53158841    -0.04200
C1910       C  0.24377981  0.80907880  0.48929478     0.02800
C1911       C  0.25082844  0.89414418  0.47734022     0.09700
C1912       C  0.23514554  0.88922536  0.56473249     0.35500
C1913       C  0.24569042  0.78219521  0.46157383     0.39000
C1914       C  0.24226760  0.90537604  0.42999469    -0.04600
C1915       C  0.24714114  0.93264960  0.40917376     0.02600
C1916       C  0.26009174  0.95005050  0.43680233    -0.04200
C1917       C  0.26739675  0.94017130  0.48668498    -0.00400
C1918       C  0.26340949  0.91181320  0.50563353    -0.03000
C1919       C  0.22859974  0.88834776  0.40201468     0.36300
C1920       C  0.27898950  0.95932301  0.51904244     0.39900
C1921       C  0.23914833  0.94147263  0.35828583     0.39000
C1922       C  0.27277179  0.90027624  0.55349091     0.38800
C1923       C  0.25771904  0.83847096  0.43046484     0.36600
C1924       C  0.22894853  0.83178577  0.60660868     0.39900
N1925       N  0.23228148  0.94728421  0.31754098    -0.38200
N1926       N  0.21776581  0.87462347  0.37972926    -0.39800
N1927       N  0.28820750  0.97465219  0.54478408    -0.37500
N1928       N  0.28030677  0.89101100  0.59152363    -0.39900
N1929       N  0.23203943  0.91102717  0.58369084    -0.39700
N1930       N  0.22482951  0.83024981  0.64532018    -0.37300
N1931       N  0.24732518  0.76089816  0.43910958    -0.38400
N1932       N  0.26434824  0.83968816  0.39630989    -0.40000
C1933       C  0.24565063  0.58497112  0.47772000    -0.04900
C1934       C  0.24925553  0.61315032  0.45657173     0.09200
C1935       C  0.25717506  0.61325394  0.41434824    -0.02300
C1936       C  0.26112499  0.58598734  0.39343748    -0.00600
C1937       C  0.25918921  0.55816523  0.41781323    -0.04200
C1938       C  0.25098756  0.55770110  0.45928390     0.02800
C1939       C  0.24445019  0.64265972  0.47747997     0.09700
C1940       C  0.26179292  0.64148279  0.39311637     0.35500
C1941       C  0.24817361  0.52923565  0.48330348     0.39000
C1942       C  0.25166440  0.65157100  0.52708772    -0.04600
C1943       C  0.24672175  0.67869625  0.54693985     0.02600
C1944       C  0.23530147  0.69846313  0.51639120    -0.04200
C1945       C  0.22914139  0.69057399  0.46536516    -0.00400
C1946       C  0.23303163  0.66243086  0.44697793    -0.03000
C1947       C  0.26416719  0.63266140  0.55804730     0.36300
C1948       C  0.21869472  0.71151716  0.43133166     0.39900
C1949       C  0.25276626  0.68509774  0.59979690     0.39000
C1950       C  0.22485485  0.65350522  0.39679393     0.36000
C1951       C  0.23654149  0.58396191  0.51869715     0.36600
C1952       C  0.26629147  0.58641375  0.34491224     0.39900
N1953       N  0.25770258  0.68943375  0.64226273    -0.38200
N1954       N  0.27412005  0.61752298  0.58275599    -0.39800
N1955       N  0.21041612  0.72828129  0.40420036    -0.37500
N1956       N  0.21837604  0.64642784  0.35671401    -0.39900
N1957       N  0.26549755  0.66401187  0.37624743    -0.39700
N1958       N  0.26991244  0.58668408  0.30545656    -0.37300
N1959       N  0.24582385  0.50654464  0.50244646    -0.38400
N1960       N  0.22932841  0.58307172  0.55155201    -0.40000
loop_ 
_geom_bond_atom_site_label_1 
_geom_bond_atom_site_label_2 
_geom_bond_distance 
_geom_bond_site_symmetry_2 
_ccdc_geom_bond_type 
C1            C2   1.537       .  S
C1            C7   1.543       .  S
C1            C5   1.531       .  S
C1          C901   1.563       .  S
C2            H9   1.083       .  S
C2            C3   1.365       .  D
C3            C4   1.561       .  S
C3          C964   1.515       .  S
C4            C8   1.551       .  S
C4            C6   1.548       .  S
C4           H10   1.110       .  S
C5           H11   1.087       .  S
C5            C6   1.365       .  D
C6           C87   1.491       .  S
C7           H12   1.085       .  S
C7            C8   1.370       .  D
C8          C929   1.499       .  S
C13          C14   1.538       .  S
C13          C17   1.525       .  S
C13         C999   1.545       .  S
C13         C873   1.560       .  S
C14          H21   1.083       .  S
C14          C15   1.369       .  D
C15          C16   1.557       .  S
C15         C936   1.512       .  S
C16          C18   1.549       .  S
C16        C1000   1.551       .  S
C16        H1002   1.110       .  S
C17          H23   1.086       .  S
C17          C18   1.363       .  D
C18          C74   1.485       .  S
C19         C993   1.545       .  S
C19          H24   1.084       .  S
C19          C20   1.371       .  D
C20         C996   1.551       .  S
C20         C957   1.506       .  S
H22         C996   1.110       .  S
C25          C26   1.534       .  S
C25          C31   1.552       .  S
C25          C29   1.537       .  S
C25         C824   1.563       .  S
C26          H33   1.086       .  S
C26          C27   1.370       .  D
C27          C28   1.547       .  S
C27         C796   1.508       .  S
C28          C32   1.537       .  S
C28          C30   1.547       .  S
C28          H34   1.110       .  S
C29          H35   1.087       .  S
C29          C30   1.366       .  D
C30         C124   1.479       .  S
C31          H36   1.078       .  S
C31          C32   1.368       .  D
C32         C852   1.503       .  S
C37          C43   1.538       .  S
C37          C41   1.537       .  S
C37        C1018   1.548   1_545  S
C37        C1748   1.564       .  S
C38        C1017   1.548       .  S
C38          H45   1.079       .  S
C38          C39   1.372       .  D
C39        C1020   1.553       .  S
C39         C817   1.515       .  S
C40          C44   1.545       .  S
C40          C42   1.548       .  S
C40        C1019   1.553   1_545  S
C40          H46   1.110       .  S
C41          H47   1.087       .  S
C41          C42   1.365       .  D
C42        C1117   1.485       .  S
C43          H48   1.087       .  S
C43          C44   1.366       .  D
C44         C845   1.499       .  S
C49          C50   1.535       .  S
C49          C55   1.543       .  S
C49          C53   1.545       .  S
C49         C733   1.563       .  S
C50          H57   1.086       .  S
C50          C51   1.359       .  D
C51          C52   1.562       .  S
C51         C705   1.505       .  S
C52          C56   1.545       .  S
C52          C54   1.551       .  S
C52          H58   1.105       .  S
C53          H59   1.084       .  S
C53          C54   1.380       .  D
C54         C789   1.525       .  S
C55          H60   1.080       .  S
C55          C56   1.363       .  D
C56         C677   1.506       .  S
C61          C62   1.534       .  S
C61          C67   1.526       .  S
C61          C65   1.567       .  S
C61         C740   1.569       .  S
C62          H69   1.086       .  S
C62          C63   1.366       .  D
C63          C64   1.544       .  S
C63         C649   1.517       .  S
C64          C68   1.556       .  S
C64          C66   1.537       .  S
C64          H70   1.098       .  S
C65          H71   1.063       .  S
C65          C66   1.383       .  D
C66         C908   1.521       .  S
C67          H72   1.087       .  S
C67          C68   1.356       .  D
C68         C628   1.493       .  S
O73          C76   1.270       .  A
O73         Cd78   2.468       .  S
C74          O83   1.260       .  A
C74          O79   1.263       .  A
O75          C81   1.263       .  A
O75         Cd78   2.436       .  S
C76          O84   1.266       .  A
C76         C544   1.492       .  S
C77          O82   1.259       .  A
C77          O80   1.267       .  A
C77         C600   1.481       .  S
Cd78         O85   2.504       .  S
Cd78         O84   2.437       .  S
Cd78         O83   2.441       .  S
Cd78         O79   2.555       .  S
Cd78       O1062   2.418       .  S
Cd78       O1060   2.491       .  S
O80       Cd1058   2.491   1_545  S
C81          O85   1.269       .  A
C81         C572   1.505       .  S
O82       Cd1058   2.418   1_545  S
O86          C89   1.268       .  A
O86         Cd91   2.475       .  S
C87          O96   1.261       .  A
C87          O92   1.266       .  A
O88          C94   1.263       .  A
O88         Cd91   2.435       .  S
C89          O97   1.266       .  A
C89         C509   1.496       .  S
C90          O95   1.264       .  A
C90          O93   1.265       .  A
C90         C565   1.484       .  S
Cd91         O98   2.479       .  S
Cd91         O97   2.464       .  S
Cd91         O96   2.450       .  S
Cd91         O92   2.567       .  S
Cd91         O95   2.469       .  S
Cd91         O93   2.474       .  S
C94          O98   1.268       .  A
C94         C593   1.489       .  S
C99         C100   1.538       .  S
C99         C103   1.531   1_554  S
C99        C1085   1.538       .  S
C99         C453   1.554       .  S
C100        H107   1.085       .  S
C100        C101   1.361       .  D
C101        C102   1.557       .  S
C101        C712   1.502       .  S
C102        C104   1.554       .  S
C102       C1086   1.556       .  S
C102        H108   1.108       .  S
C103        H109   1.086       .  S
C103        C104   1.370   1_556  D
C104        C481   1.512   1_554  S
C105       C1079   1.538   1_545  S
C105        H110   1.081       .  S
C105        C106   1.366       .  D
C106       C1082   1.556   1_545  S
C106        C684   1.515       .  S
C111        C112   1.526       .  S
C111        C115   1.543       .  S
C111       C1097   1.539       .  S
C111        C460   1.557       .  S
C112        H119   1.086       .  S
C112        C113   1.368       .  D
C113        C114   1.557       .  S
C113        C656   1.515       .  S
C114        C116   1.543       .  S
C114       C1098   1.553       .  S
C114        H120   1.108       .  S
C115        H121   1.081       .  S
C115        C116   1.363       .  D
C116        C537   1.502       .  S
C117       C1091   1.539   1_545  S
C117        H122   1.086       .  S
C117        C118   1.370       .  D
C118       C1094   1.553   1_545  S
C118        C621   1.501       .  S
O123        C126   1.265       .  A
O123       Cd128   2.479       .  S
C124        O133   1.261       .  A
C124        O129   1.261       .  A
O125        C131   1.265       .  A
O125       Cd128   2.423       .  S
C126        O134   1.264       .  A
C126        C376   1.488       .  S
C127        O132   1.265       .  A
C127        O130   1.266       .  A
C127        C397   1.488       .  S
Cd128       O135   2.471       .  S
Cd128       O134   2.455       .  S
Cd128       O133   2.516       .  S
Cd128       O129   2.466       .  S
Cd128       O132   2.484       .  S
Cd128       O130   2.462       .  S
C131        O135   1.268       .  A
C131        C432   1.490       .  S
O136        C139   1.264       .  A
O136       Cd141   2.460       .  S
C137       C1022   1.485       .  S
C137        O146   1.261       .  A
C137        O142   1.265       .  A
O138        C144   1.265       .  A
O138       Cd141   2.434       .  S
C139        O147   1.266       .  A
C139        C488   1.496       .  S
C140        O145   1.263       .  A
C140        O143   1.267       .  A
C140        C425   1.494       .  S
Cd141       O148   2.481       .  S
Cd141       O147   2.484       .  S
Cd141       O146   2.448       .  S
Cd141       O142   2.549       .  S
Cd141      O1125   2.451       .  S
Cd141      O1123   2.476       .  S
O143      Cd1121   2.476   1_545  S
C144        O148   1.268       .  A
C144        C404   1.485       .  S
O145      Cd1121   2.451   1_545  S
C149        C150   1.536       .  S
C149        C155   1.528       .  S
C149        C153   1.550       .  S
C149        C341   1.557       .  S
C150        H157   1.086       .  S
C150        C151   1.361       .  D
C151        C152   1.548       .  S
C151        C320   1.499       .  S
C152        C156   1.548       .  S
C152        C154   1.547       .  S
C152        H158   1.109       .  S
C153        H159   1.081   1_556  S
C153        C154   1.373       .  D
C154        C369   1.502       .  S
C155        H160   1.086       .  S
C155        C156   1.364       .  D
C156        C285   1.506       .  S
C161        C162   1.537       .  S
C161        C167   1.531       .  S
C161        C165   1.548       .  S
C161        C348   1.559       .  S
C162        H169   1.080       .  S
C162        C163   1.356       .  D
C163        C164   1.540       .  S
C163        C264   1.494       .  S
C164        C168   1.546       .  S
C164        C166   1.552       .  S
C164        H170   1.107       .  S
C165        H171   1.084   1_554  S
C165        C166   1.382       .  D
C166        C516   1.514   1_554  S
C167        H172   1.086       .  S
C167        C168   1.360       .  D
C168        C229   1.493       .  S
C173        C179   1.531       .  S
C173        C177   1.554       .  S
C173       C1154   1.534       .  S
C173        C201   1.565       .  S
C174       C1153   1.534   1_545  S
C174        H181   1.086       .  S
C174        C175   1.368       .  D
C175       C1156   1.550   1_545  S
C175        C313   1.513       .  S
C176        C180   1.546       .  S
C176        C178   1.547       .  S
C176       C1155   1.550       .  S
C176        H182   1.109       .  S
C177        H183   1.073       .  S
C177        C178   1.378       .  D
C178        C761   1.509       .  S
C179        H184   1.086       .  S
C179        C180   1.357       .  D
C180        C292   1.492       .  S
C185        C191   1.539       .  S
C185        C189   1.542       .  S
C185       C1166   1.540       .  S
C185        C208   1.557       .  S
C186       C1165   1.540   1_545  S
C186        H193   1.085       .  S
C186        C187   1.358       .  D
C187       C1168   1.538       .  S
C187        C257   1.497       .  S
C188        C192   1.553       .  S
C188        C190   1.551       .  S
C188       C1167   1.538       .  S
C188        H194   1.101       .  S
C189        H195   1.083       .  S
C189        C190   1.380       .  D
C190        C880   1.530       .  S
C191        H196   1.083       .  S
C191        C192   1.361       .  D
C192        C236   1.497       .  S
C197        C198   1.407       .  A
C197        C202   1.419       .  A
C197       C1195   1.453       .  S
C198        C203   1.502       .  S
C198        C199   1.402       .  A
C199        C200   1.411       .  A
C199        C204   1.454       .  S
C200        C201   1.437       .  A
C200        C216   1.452       .  S
C201        C202   1.430       .  A
C202       C1185   1.446       .  S
C203        C206   1.409       .  A
C203       C1190   1.407       .  A
C204        N221   1.157       .  T
C205       C1182   1.446       .  S
C205        N223   1.157       .  T
C206        C207   1.416       .  A
C206        C211   1.451       .  S
C207        C208   1.425       .  A
C207        C213   1.450       .  S
C208       C1189   1.426       .  A
C209        C210   1.411       .  A
C209       C1188   1.426   1_545  A
C209        C212   1.451       .  S
C210       C1183   1.407   1_545  A
C210        C214   1.452       .  S
C211        N218   1.157       .  T
C212        N219   1.157       .  T
C213        N217   1.158       .  T
C214        N220   1.157       .  T
C215       C1177   1.453       .  S
C215        N224   1.157       .  T
C216        N222   1.157       .  T
C225        C226   1.413       .  A
C225        C230   1.414       .  A
C225        C243   1.450       .  S
C226        C231   1.507       .  S
C226        C227   1.416       .  A
C227        C228   1.409       .  A
C227        C232   1.451       .  S
C228        C229   1.406       .  A
C228        C244   1.446       .  S
C229        C230   1.417       .  A
C230        C233   1.450       .  S
C231        C234   1.411       .  A
C231        C238   1.415       .  A
C232        N249   1.157       .  T
C233        N251   1.157   1_554  T
C234        C235   1.409       .  A
C234        C239   1.451       .  S
C235        C236   1.416       .  A
C235        C241   1.450       .  S
C236        C237   1.414       .  A
C237        C238   1.416       .  A
C237        C240   1.447       .  S
C238        C242   1.451       .  S
C239        N246   1.157       .  T
C240        N247   1.156       .  T
C241        N245   1.157       .  T
C242        N248   1.157       .  T
C243        N252   1.157       .  T
C244        N250   1.156       .  T
C253        C254   1.413       .  A
C253        C258   1.410       .  A
C253        C271   1.452       .  S
C254        C259   1.502       .  S
C254        C255   1.410       .  A
C255        C256   1.414       .  A
C255        C260   1.451       .  S
C256        C257   1.417       .  A
C256        C272   1.447       .  S
C257        C258   1.415       .  A
C258        C261   1.450       .  S
C259        C262   1.413       .  A
C259        C266   1.411       .  A
C260        N277   1.157       .  T
C261        N279   1.157       .  T
C262        C263   1.415       .  A
C262        C267   1.450       .  S
C263        C264   1.413       .  A
C263        C269   1.447       .  S
C264        C265   1.417       .  A
C265        C266   1.408       .  A
C265        C268   1.451       .  S
C266        C270   1.452       .  S
C267        N274   1.157       .  T
C268        N275   1.158       .  T
C269        N273   1.157       .  T
C270        N276   1.157       .  T
C271        N280   1.157       .  T
C272        N278   1.156       .  T
C281        C282   1.410       .  A
C281        C286   1.410       .  A
C281        C299   1.452       .  S
C282        C287   1.501       .  S
C282        C283   1.408       .  A
C283        C284   1.415       .  A
C283        C288   1.451       .  S
C284        C285   1.419       .  A
C284        C300   1.445       .  S
C285        C286   1.419       .  A
C286        C289   1.450       .  S
C287        C290   1.415       .  A
C287        C294   1.409       .  A
C288        N305   1.157       .  T
C289        N307   1.157       .  T
C290        C291   1.415       .  A
C290        C295   1.450       .  S
C291        C292   1.410       .  A
C291        C297   1.450       .  S
C292        C293   1.417       .  A
C293        C294   1.408       .  A
C293        C296   1.452       .  S
C294        C298   1.451       .  S
C295        N302   1.157       .  T
C296        N303   1.157       .  T
C297        N301   1.157       .  T
C298        N304   1.157       .  T
C299        N308   1.157       .  T
C300        N306   1.156       .  T
C309        C310   1.410       .  A
C309        C314   1.418       .  A
C309        C327   1.451       .  S
C310        C315   1.506       .  S
C310        C311   1.409       .  A
C311        C312   1.411       .  A
C311        C316   1.452       .  S
C312        C313   1.420       .  A
C312        C328   1.449       .  S
C313        C314   1.422       .  A
C314        C317   1.447       .  S
C315        C318   1.414       .  A
C315        C322   1.411       .  A
C316        N333   1.157       .  T
C317        N335   1.157       .  T
C318        C319   1.416       .  A
C318        C323   1.450       .  S
C319        C320   1.412       .  A
C319        C325   1.449       .  S
C320        C321   1.419       .  A
C321        C322   1.411       .  A
C321        C324   1.452       .  S
C322        C326   1.451       .  S
C323        N330   1.157       .  T
C324        N331   1.157       .  T
C325        N329   1.157       .  T
C326        N332   1.157       .  T
C327        N336   1.157       .  T
C328        N334   1.156       .  T
C337        C338   1.401       .  A
C337        C342   1.410       .  A
C337        C355   1.453       .  S
C338        C343   1.495       .  S
C338        C339   1.405   1_556  A
C339        C340   1.413   1_554  A
C339        C344   1.454       .  S
C340        C341   1.429       .  A
C340        C356   1.446   1_556  S
C341        C342   1.436       .  A
C342        C345   1.452       .  S
C343        C346   1.401   1_556  A
C343        C350   1.405       .  A
C344        N361   1.157       .  T
C345        N363   1.157       .  T
C346        C347   1.408       .  A
C346        C351   1.456       .  S
C347        C348   1.436       .  A
C347        C353   1.448       .  S
C348        C349   1.429   1_554  A
C349        C350   1.414       .  A
C349        C352   1.449       .  S
C350        C354   1.452       .  S
C351        N358   1.157       .  T
C352        N359   1.157       .  T
C353        N357   1.157       .  T
C354        N360   1.157       .  T
C355        N364   1.157       .  T
C356        N362   1.157       .  T
C365        C366   1.409       .  A
C365        C370   1.412   1_554  A
C365        C383   1.452       .  S
C366        C371   1.497       .  S
C366        C367   1.407       .  A
C367        C368   1.412       .  A
C367        C372   1.451       .  S
C368        C369   1.420   1_554  A
C368        C384   1.450       .  S
C369        C370   1.417       .  A
C370        C373   1.447       .  S
C371        C374   1.409       .  A
C371        C378   1.411       .  A
C372        N389   1.157       .  T
C373        N391   1.156       .  T
C374        C375   1.409       .  A
C374        C379   1.451   1_554  S
C375        C376   1.417       .  A
C375        C381   1.453       .  S
C376        C377   1.415       .  A
C377        C378   1.413       .  A
C377        C380   1.451       .  S
C378        C382   1.450       .  S
C379        N386   1.157       .  T
C380        N387   1.157       .  T
C381        N385   1.158       .  T
C382        N388   1.157       .  T
C383        N392   1.157   1_554  T
C384        N390   1.157       .  T
C393        C394   1.409       .  A
C393        C398   1.413   1_556  A
C393        C411   1.450       .  S
C394        C399   1.497       .  S
C394        C395   1.412   1_556  A
C395        C396   1.410       .  A
C395        C400   1.451       .  S
C396        C397   1.413       .  A
C396        C412   1.451       .  S
C397        C398   1.417       .  A
C398        C401   1.451       .  S
C399        C402   1.411       .  A
C399        C406   1.410       .  A
C400        N417   1.157       .  T
C401        N419   1.158   1_554  T
C402        C403   1.410       .  A
C402        C407   1.451       .  S
C403        C404   1.413       .  A
C403        C409   1.451       .  S
C404        C405   1.416       .  A
C405        C406   1.412       .  A
C405        C408   1.451       .  S
C406        C410   1.450       .  S
C407        N414   1.157       .  T
C408        N415   1.157       .  T
C409        N413   1.157       .  T
C410        N416   1.157       .  T
C411        N420   1.157       .  T
C412        N418   1.157       .  T
C421        C422   1.408       .  A
C421        C426   1.410       .  A
C421        C439   1.451       .  S
C422        C427   1.493   1_556  S
C422        C423   1.407       .  A
C423        C424   1.411       .  A
C423        C428   1.452   1_556  S
C424        C425   1.422       .  A
C424        C440   1.452       .  S
C425        C426   1.418       .  A
C426        C429   1.451       .  S
C427        C430   1.408       .  A
C427        C434   1.408       .  A
C428        N445   1.157       .  T
C429        N447   1.157       .  T
C430        C431   1.411       .  A
C430        C435   1.451   1_554  S
C431        C432   1.419       .  A
C431        C437   1.451       .  S
C432        C433   1.418       .  A
C433        C434   1.409       .  A
C433        C436   1.452       .  S
C434        C438   1.451       .  S
C435        N442   1.157       .  T
C436        N443   1.157       .  T
C437        N441   1.158       .  T
C438        N444   1.157       .  T
C439        N448   1.157       .  T
C440        N446   1.158   1_545  T
C449        C454   1.412       .  A
C449       C1430   1.406   1_545  A
C449        C467   1.452       .  S
C450        C455   1.498   1_655  S
C450        C451   1.408       .  A
C450       C1429   1.406       .  A
C451        C452   1.411       .  A
C451        C456   1.452       .  S
C452        C453   1.425   1_556  A
C452        C468   1.450       .  S
C453       C1434   1.429   1_554  A
C454       C1433   1.429   1_546  A
C454        C457   1.450       .  S
C455        C458   1.405       .  A
C455       C1442   1.406       .  A
C456        N473   1.157       .  T
C457        N475   1.157       .  T
C458        C459   1.411       .  A
C458        C463   1.453   1_556  S
C459        C460   1.431       .  A
C459        C465   1.451   1_556  S
C460       C1441   1.428       .  A
C461        C462   1.413       .  A
C461       C1440   1.428       .  A
C461        C464   1.448   1_565  S
C462       C1435   1.406       .  A
C462        C466   1.453   1_465  S
C463        N470   1.157       .  T
C464        N471   1.156       .  T
C465        N469   1.158       .  T
C466        N472   1.157       .  T
C467        N476   1.157       .  T
C468        N474   1.157       .  T
C477        C478   1.410       .  A
C477        C482   1.417       .  A
C477        C495   1.451       .  S
C478        C483   1.502       .  S
C478       C1459   1.406       .  A
C479        C480   1.411       .  A
C479       C1458   1.406   1_545  A
C479        C484   1.452       .  S
C480       C1461   1.424   1_545  A
C480        C496   1.450       .  S
C481        C482   1.420       .  A
C481       C1460   1.424       .  A
C482        C485   1.447   1_556  S
C483        C490   1.410       .  A
C483       C1466   1.411       .  A
C484        N501   1.157       .  T
C485        N503   1.157       .  T
C486        C487   1.412       .  A
C486       C1463   1.411   1_545  A
C486        C491   1.452       .  S
C487       C1468   1.419       .  A
C487        C493   1.452       .  S
C488        C489   1.418       .  A
C488       C1467   1.419       .  A
C489        C490   1.414       .  A
C489        C492   1.451       .  S
C490        C494   1.450       .  S
C491        N498   1.157       .  T
C492        N499   1.157       .  T
C493        N497   1.158       .  T
C494        N500   1.157       .  T
C495        N504   1.157       .  T
C496        N502   1.157       .  T
C505        C506   1.409       .  A
C505        C510   1.412       .  A
C505        C523   1.452       .  S
C506        C511   1.499       .  S
C506        C507   1.409       .  A
C507        C508   1.413       .  A
C507        C512   1.450       .  S
C508        C509   1.417       .  A
C508        C524   1.450       .  S
C509        C510   1.421       .  A
C510        C513   1.452       .  S
C511        C514   1.406       .  A
C511        C518   1.406       .  A
C512        N529   1.157       .  T
C513        N531   1.157       .  T
C514        C515   1.415       .  A
C514        C519   1.451       .  S
C515        C516   1.426       .  A
C515        C521   1.451       .  S
C516        C517   1.424       .  A
C517        C518   1.412       .  A
C517        C520   1.448   1_556  S
C518        C522   1.453       .  S
C519        N526   1.157       .  T
C520        N527   1.157       .  T
C521        N525   1.158       .  T
C522        N528   1.157       .  T
C523        N532   1.157       .  T
C524        N530   1.157       .  T
C533        C534   1.411       .  A
C533        C538   1.413   1_554  A
C533        C551   1.451       .  S
C534        C539   1.499       .  S
C534       C1515   1.409       .  A
C535        C536   1.411       .  A
C535       C1514   1.409   1_545  A
C535        C540   1.451       .  S
C536       C1517   1.421   1_544  A
C536        C552   1.452       .  S
C537        C538   1.416       .  A
C537       C1516   1.421   1_556  A
C538        C541   1.449       .  S
C539        C546   1.412       .  A
C539       C1522   1.410       .  A
C540        N557   1.157       .  T
C541        N559   1.157       .  T
C542        C543   1.408       .  A
C542       C1519   1.410   1_545  A
C542        C547   1.452       .  S
C543       C1524   1.419   1_545  A
C543        C549   1.453       .  S
C544        C545   1.415       .  A
C544       C1523   1.419       .  A
C545        C546   1.415       .  A
C545        C548   1.451       .  S
C546        C550   1.449       .  S
C547        N554   1.157   1_554  T
C548        N555   1.157       .  T
C549        N553   1.157       .  T
C550        N556   1.157       .  T
C551        N560   1.157       .  T
C552        N558   1.157       .  T
C561        C562   1.411       .  A
C561        C566   1.411       .  A
C561        C579   1.451   1_556  S
C562        C567   1.500       .  S
C562        C563   1.413       .  A
C563        C564   1.413       .  A
C563        C568   1.450       .  S
C564        C565   1.412       .  A
C564        C580   1.450       .  S
C565        C566   1.415       .  A
C566        C569   1.452       .  S
C567        C570   1.407       .  A
C567        C574   1.410   1_556  A
C568        N585   1.157       .  T
C569        N587   1.158       .  T
C570        C571   1.411   1_556  A
C570        C575   1.453       .  S
C571        C572   1.426       .  A
C571        C577   1.452       .  S
C572        C573   1.422       .  A
C573        C574   1.416       .  A
C573        C576   1.450       .  S
C574        C578   1.451       .  S
C575        N582   1.157       .  T
C576        N583   1.158       .  T
C577        N581   1.158       .  T
C578        N584   1.157       .  T
C579        N588   1.157       .  T
C580        N586   1.157       .  T
C589        C590   1.411       .  A
C589        C594   1.410       .  A
C589        C607   1.452       .  S
C590        C595   1.496       .  S
C590        C591   1.410       .  A
C591        C592   1.410       .  A
C591        C596   1.452       .  S
C592        C593   1.418       .  A
C592        C608   1.452       .  S
C593        C594   1.417       .  A
C594        C597   1.451       .  S
C595        C598   1.413   1_556  A
C595        C602   1.410       .  A
C596        N613   1.157       .  T
C597        N615   1.157       .  T
C598        C599   1.410       .  A
C598        C603   1.451       .  S
C599        C600   1.411       .  A
C599        C605   1.450       .  S
C600        C601   1.417       .  A
C601        C602   1.408   1_554  A
C601        C604   1.454       .  S
C602        C606   1.451       .  S
C603        N610   1.157       .  T
C604        N611   1.158   1_554  T
C605        N609   1.157       .  T
C606        N612   1.157       .  T
C607        N616   1.157       .  T
C608        N614   1.157       .  T
C617        C618   1.412       .  A
C617        C622   1.412       .  A
C617        C635   1.450       .  S
C618        C623   1.504       .  S
C618        C619   1.410       .  A
C619        C620   1.416       .  A
C619        C624   1.450       .  S
C620        C621   1.413       .  A
C620        C636   1.443       .  S
C621        C622   1.413       .  A
C622        C625   1.449       .  S
C623        C626   1.414       .  A
C623        C630   1.410       .  A
C624        N641   1.157       .  T
C625        N643   1.157       .  T
C626        C627   1.415       .  A
C626        C631   1.450       .  S
C627        C628   1.412       .  A
C627        C633   1.450       .  S
C628        C629   1.417       .  A
C629        C630   1.411       .  A
C629        C632   1.452       .  S
C630        C634   1.450       .  S
C631        N638   1.157       .  T
C632        N639   1.157       .  T
C633        N637   1.157       .  T
C634        N640   1.157       .  T
C635        N644   1.157       .  T
C636        N642   1.155       .  T
C645        C646   1.413       .  A
C645        C650   1.416       .  A
C645        C663   1.452       .  S
C646        C651   1.509       .  S
C646        C647   1.410       .  A
C647        C648   1.410       .  A
C647        C652   1.452       .  S
C648        C649   1.425       .  A
C648        C664   1.452       .  S
C649        C650   1.422       .  A
C650        C653   1.448       .  S
C651        C654   1.414       .  A
C651        C658   1.410       .  A
C652        N669   1.157       .  T
C653        N671   1.157       .  T
C654        C655   1.418       .  A
C654        C659   1.451       .  S
C655        C656   1.420       .  A
C655        C661   1.448       .  S
C656        C657   1.425       .  A
C657        C658   1.409       .  A
C657        C660   1.452       .  S
C658        C662   1.453       .  S
C659        N666   1.157       .  T
C660        N667   1.157       .  T
C661        N665   1.157       .  T
C662        N668   1.157       .  T
C663        N672   1.157       .  T
C664        N670   1.157       .  T
C673        C674   1.407       .  A
C673        C678   1.410       .  A
C673        C691   1.452       .  S
C674        C679   1.506       .  S
C674        C675   1.414       .  A
C675        C676   1.419       .  A
C675        C680   1.449       .  S
C676        C677   1.413       .  A
C676        C692   1.447       .  S
C677        C678   1.419       .  A
C678        C681   1.446       .  S
C679        C682   1.409       .  A
C679        C686   1.409       .  A
C680        N697   1.157       .  T
C681        N699   1.155       .  T
C682        C683   1.418       .  A
C682        C687   1.451       .  S
C683        C684   1.421       .  A
C683        C689   1.446       .  S
C684        C685   1.424       .  A
C685        C686   1.413       .  A
C685        C688   1.452       .  S
C686        C690   1.452       .  S
C687        N694   1.157       .  T
C688        N695   1.158       .  T
C689        N693   1.157       .  T
C690        N696   1.157       .  T
C691        N700   1.157       .  T
C692        N698   1.157       .  T
C701        C702   1.418       .  A
C701        C706   1.420       .  A
C701        C719   1.450       .  S
C702        C707   1.519       .  S
C702        C703   1.414       .  A
C703        C704   1.415       .  A
C703        C708   1.450       .  S
C704        C705   1.415       .  A
C704        C720   1.450       .  S
C705        C706   1.415       .  A
C706        C709   1.450       .  S
C707        C710   1.415       .  A
C707        C714   1.419       .  A
C708        N725   1.157       .  T
C709        N727   1.157       .  T
C710        C711   1.417       .  A
C710        C715   1.450       .  S
C711        C712   1.417       .  A
C711        C717   1.451       .  S
C712        C713   1.411       .  A
C713        C714   1.418       .  A
C713        C716   1.449       .  S
C714        C718   1.450       .  S
C715        N722   1.157       .  T
C716        N723   1.157       .  T
C717        N721   1.157   1_554  T
C718        N724   1.157       .  T
C719        N728   1.157       .  T
C720        N726   1.157       .  T
C729        C730   1.406       .  A
C729        C734   1.415       .  A
C729        C747   1.452       .  S
C730        C735   1.505   1_655  S
C730        C731   1.409       .  A
C731        C732   1.415       .  A
C731        C736   1.450       .  S
C732        C733   1.426       .  A
C732        C748   1.451       .  S
C733        C734   1.428       .  A
C734        C737   1.448       .  S
C735        C738   1.406       .  A
C735        C742   1.402       .  A
C736        N753   1.157       .  T
C737        N755   1.157       .  T
C738        C739   1.420       .  A
C738        C743   1.453       .  S
C739        C740   1.431       .  A
C739        C745   1.445       .  S
C740        C741   1.438       .  A
C741        C742   1.413       .  A
C741        C744   1.454       .  S
C742        C746   1.453   1_455  S
C743        N750   1.157       .  T
C744        N751   1.158       .  T
C745        N749   1.158       .  T
C746        N752   1.157       .  T
C747        N756   1.157       .  T
C748        N754   1.157       .  T
C757        C758   1.409       .  A
C757        C762   1.414       .  A
C757       C1755   1.450       .  S
C758        C763   1.504       .  S
C758        C759   1.409       .  A
C759        C760   1.414       .  A
C759        C764   1.453       .  S
C760        C761   1.421       .  A
C760        C776   1.446       .  S
C761        C762   1.421       .  A
C762       C1745   1.450       .  S
C763        C770   1.406       .  A
C763       C1746   1.406       .  A
C764        N781   1.157       .  T
C765       C1742   1.450       .  S
C765        N783   1.157       .  T
C766        C767   1.415       .  A
C766       C1743   1.406       .  A
C766        C771   1.452       .  S
C767       C1748   1.431       .  A
C767        C773   1.451       .  S
C768       C1017   1.564       .  S
C768        C769   1.428       .  A
C768       C1747   1.431       .  A
C769        C770   1.415       .  A
C769        C772   1.445       .  S
C770        C774   1.453       .  S
C771        N778   1.157       .  T
C772        N779   1.157       .  T
C773        N777   1.157       .  T
C774        N780   1.157       .  T
C775       C1737   1.450       .  S
C775        N784   1.157       .  T
C776        N782   1.157       .  T
C785        C786   1.408       .  A
C785        C790   1.412       .  A
C785        C803   1.454       .  S
C786        C791   1.508       .  S
C786        C787   1.409       .  A
C787        C788   1.417       .  A
C787        C792   1.452       .  S
C788        C789   1.430       .  A
C788        C804   1.449       .  S
C789        C790   1.427       .  A
C790        C793   1.446       .  S
C791        C794   1.414       .  A
C791        C798   1.411       .  A
C792        N809   1.157       .  T
C793        N811   1.157       .  T
C794        C795   1.415       .  A
C794        C799   1.453       .  S
C795        C796   1.419       .  A
C795        C801   1.448       .  S
C796        C797   1.421       .  A
C797        C798   1.411       .  A
C797        C800   1.452       .  S
C798        C802   1.451       .  S
C799        N806   1.157       .  T
C800        N807   1.157       .  T
C801        N805   1.157       .  T
C802        N808   1.157       .  T
C803        N812   1.157       .  T
C804        N810   1.158       .  T
C813        C814   1.414       .  A
C813        C818   1.418       .  A
C813        C831   1.452       .  S
C814        C819   1.514       .  S
C814        C815   1.412       .  A
C815        C816   1.415       .  A
C815        C820   1.452       .  S
C816        C817   1.422       .  A
C816        C832   1.450       .  S
C817        C818   1.418       .  A
C818        C821   1.446       .  S
C819        C822   1.412       .  A
C819        C826   1.411       .  A
C820        N837   1.157       .  T
C821        N839   1.156       .  T
C822        C823   1.414       .  A
C822        C827   1.451       .  S
C823        C824   1.425       .  A
C823        C829   1.448       .  S
C824        C825   1.429       .  A
C825        C826   1.418       .  A
C825        C828   1.452       .  S
C826        C830   1.451       .  S
C827        N834   1.157       .  T
C828        N835   1.158       .  T
C829        N833   1.158       .  T
C830        N836   1.157       .  T
C831        N840   1.157       .  T
C832        N838   1.157       .  T
C841        C842   1.412       .  A
C841        C846   1.415       .  A
C841        C859   1.450       .  S
C842        C847   1.507       .  S
C842        C843   1.412       .  A
C843        C844   1.416       .  A
C843        C848   1.450       .  S
C844        C845   1.413       .  A
C844        C860   1.447       .  S
C845        C846   1.414       .  A
C846        C849   1.450       .  S
C847        C850   1.411       .  A
C847        C854   1.413       .  A
C848        N865   1.157       .  T
C849        N867   1.157       .  T
C850        C851   1.416       .  A
C850        C855   1.450       .  S
C851        C852   1.416       .  A
C851        C857   1.448       .  S
C852        C853   1.416       .  A
C853        C854   1.414       .  A
C853        C856   1.451       .  S
C854        C858   1.450       .  S
C855        N862   1.157       .  T
C856        N863   1.157       .  T
C857        N861   1.157       .  T
C858        N864   1.157       .  T
C859        N868   1.157       .  T
C860        N866   1.156       .  T
C869        C874   1.415       .  A
C869       C1850   1.406   1_545  A
C869        C887   1.454       .  S
C870        C875   1.503       .  S
C870        C871   1.405       .  A
C870       C1849   1.406       .  A
C871        C872   1.413       .  A
C871        C876   1.452       .  S
C872        C873   1.432       .  A
C872        C888   1.452       .  S
C873       C1854   1.430       .  A
C874       C1853   1.430       .  A
C874        C877   1.448       .  S
C875        C882   1.406       .  A
C875       C1858   1.404       .  A
C876        N893   1.157       .  T
C877        N895   1.157       .  T
C878        C879   1.415       .  A
C878       C1855   1.404   1_545  A
C878        C883   1.452       .  S
C879       C1860   1.432   1_545  A
C879        C885   1.450       .  S
C880        C881   1.432       .  A
C880       C1859   1.432       .  A
C881        C882   1.414       .  A
C881        C884   1.449       .  S
C882        C886   1.455       .  S
C883        N890   1.157       .  T
C884        N891   1.158       .  T
C885        N889   1.157       .  T
C886        N892   1.157       .  T
C887        N896   1.157       .  T
C888        N894   1.158       .  T
C897        C898   1.407       .  A
C897        C902   1.411       .  A
C897        C915   1.454       .  S
C898        C903   1.508       .  S
C898        C899   1.409       .  A
C899        C900   1.417       .  A
C899        C904   1.454       .  S
C900        C901   1.433       .  A
C900        C916   1.449       .  S
C901        C902   1.433       .  A
C902        C905   1.451       .  S
C903        C906   1.410       .  A
C903        C910   1.409       .  A
C904        N921   1.157       .  T
C905        N923   1.158       .  T
C906        C907   1.413       .  A
C906        C911   1.456       .  S
C907        C908   1.429       .  A
C907        C913   1.449       .  S
C908        C909   1.425       .  A
C909        C910   1.416       .  A
C909        C912   1.449       .  S
C910        C914   1.451       .  S
C911        N918   1.157       .  T
C912        N919   1.157       .  T
C913        N917   1.158       .  T
C914        N920   1.157       .  T
C915        N924   1.157       .  T
C916        N922   1.157       .  T
C925        C926   1.417       .  A
C925        C930   1.417       .  A
C925        C943   1.450       .  S
C926        C931   1.511       .  S
C926        C927   1.413       .  A
C927        C928   1.412       .  A
C927        C932   1.451       .  S
C928        C929   1.415       .  A
C928        C944   1.450       .  S
C929        C930   1.411       .  A
C930        C933   1.448       .  S
C931        C934   1.413       .  A
C931        C938   1.412       .  A
C932        N949   1.157       .  T
C933        N951   1.157       .  T
C934        C935   1.417       .  A
C934        C939   1.452       .  S
C935        C936   1.418       .  A
C935        C941   1.446       .  S
C936        C937   1.421       .  A
C937        C938   1.414       .  A
C937        C940   1.452       .  S
C938        C942   1.451       .  S
C939        N946   1.157       .  T
C940        N947   1.157       .  T
C941        N945   1.156       .  T
C942        N948   1.157       .  T
C943        N952   1.157       .  T
C944        N950   1.157       .  T
C953        C954   1.421       .  A
C953        C958   1.423       .  A
C953        C971   1.450       .  S
C954        C959   1.522       .  S
C954        C955   1.416       .  A
C955        C956   1.413       .  A
C955        C960   1.450       .  S
C956        C957   1.412       .  A
C956        C972   1.450       .  S
C957        C958   1.412       .  A
C958        C961   1.449       .  S
C959        C962   1.417       .  A
C959        C966   1.416       .  A
C960        N977   1.157       .  T
C961        N979   1.157       .  T
C962        C963   1.422       .  A
C962        C967   1.450       .  S
C963        C964   1.416       .  A
C963        C969   1.448       .  S
C964        C965   1.420       .  A
C965        C966   1.416       .  A
C965        C968   1.452       .  S
C966        C970   1.451       .  S
C967        N974   1.157       .  T
C968        N975   1.157       .  T
C969        N973   1.157       .  T
C970        N976   1.157       .  T
C971        N980   1.157       .  T
C972        N978   1.157       .  T
C981        C982   1.537       .  S
C981        C987   1.543       .  S
C981        C985   1.531       .  S
C981       C1881   1.563       .  S
C982        H989   1.083       .  S
C982        C983   1.365       .  D
C983        C984   1.561       .  S
C983       C1944   1.515       .  S
C984        C988   1.551       .  S
C984        C986   1.548       .  S
C984        H990   1.110       .  S
C985        H991   1.087       .  S
C985        C986   1.365       .  D
C986       C1067   1.491       .  S
C987        H992   1.085       .  S
C987        C988   1.370       .  D
C988       C1909   1.499       .  S
C993        C994   1.538   1_545  S
C993        C997   1.525   1_545  S
C993       C1853   1.560       .  S
C994       H1001   1.083       .  S
C994        C995   1.369       .  D
C995        C996   1.557   1_565  S
C995       C1916   1.512       .  S
C996        C998   1.549   1_545  S
C997       H1003   1.086       .  S
C997        C998   1.363       .  D
C998       C1054   1.485       .  S
C999       H1004   1.084       .  S
C999       C1000   1.371       .  D
C1000      C1937   1.506       .  S
C1005      C1006   1.534       .  S
C1005      C1011   1.552       .  S
C1005      C1009   1.537       .  S
C1005      C1804   1.563       .  S
C1006      H1013   1.086       .  S
C1006      C1007   1.370       .  D
C1007      C1008   1.547       .  S
C1007      C1776   1.508       .  S
C1008      C1012   1.537       .  S
C1008      C1010   1.547       .  S
C1008      H1014   1.110       .  S
C1009      H1015   1.087       .  S
C1009      C1010   1.366       .  D
C1010      C1104   1.479       .  S
C1011      H1016   1.078       .  S
C1011      C1012   1.368       .  D
C1012      C1832   1.503       .  S
C1017      C1023   1.538       .  S
C1017      C1021   1.537       .  S
C1018      H1025   1.079       .  S
C1018      C1019   1.372       .  D
C1019      C1797   1.515       .  S
C1020      C1024   1.545       .  S
C1020      C1022   1.548       .  S
C1020      H1026   1.110       .  S
C1021      H1027   1.087       .  S
C1021      C1022   1.365       .  D
C1023      H1028   1.087       .  S
C1023      C1024   1.366       .  D
C1024      C1825   1.499       .  S
C1029      C1030   1.535       .  S
C1029      C1035   1.543       .  S
C1029      C1033   1.545       .  S
C1029      C1713   1.563       .  S
C1030      H1037   1.086       .  S
C1030      C1031   1.359       .  D
C1031      C1032   1.562       .  S
C1031      C1685   1.505       .  S
C1032      C1036   1.545       .  S
C1032      C1034   1.551       .  S
C1032      H1038   1.105       .  S
C1033      H1039   1.084       .  S
C1033      C1034   1.380       .  D
C1034      C1769   1.525       .  S
C1035      H1040   1.080       .  S
C1035      C1036   1.363       .  D
C1036      C1657   1.506       .  S
C1041      C1042   1.534       .  S
C1041      C1047   1.526       .  S
C1041      C1045   1.567       .  S
C1041      C1720   1.569       .  S
C1042      H1049   1.086       .  S
C1042      C1043   1.366       .  D
C1043      C1044   1.544       .  S
C1043      C1629   1.517       .  S
C1044      C1048   1.556       .  S
C1044      C1046   1.537       .  S
C1044      H1050   1.098       .  S
C1045      H1051   1.063       .  S
C1045      C1046   1.383       .  D
C1046      C1888   1.521       .  S
C1047      H1052   1.087       .  S
C1047      C1048   1.356       .  D
C1048      C1608   1.493       .  S
O1053      C1056   1.270       .  A
O1053     Cd1058   2.468       .  S
C1054      O1063   1.260       .  A
C1054      O1059   1.263   1_565  A
O1055      C1061   1.263       .  A
O1055     Cd1058   2.436       .  S
C1056      O1064   1.266   1_565  A
C1056      C1524   1.492       .  S
C1057      O1062   1.259       .  A
C1057      O1060   1.267       .  A
C1057      C1580   1.481       .  S
Cd1058     O1065   2.504       .  S
Cd1058     O1064   2.437   1_565  S
Cd1058     O1063   2.441       .  S
Cd1058     O1059   2.555   1_565  S
C1061      O1065   1.269       .  A
C1061      C1552   1.505       .  S
O1066      C1069   1.268       .  A
O1066     Cd1071   2.475       .  S
C1067      O1076   1.261       .  A
C1067      O1072   1.266       .  A
O1068      C1074   1.263       .  A
O1068     Cd1071   2.435       .  S
C1069      O1077   1.266       .  A
C1069      C1489   1.496       .  S
C1070      O1075   1.264       .  A
C1070      O1073   1.265       .  A
C1070      C1545   1.484       .  S
Cd1071     O1078   2.479       .  S
Cd1071     O1077   2.464       .  S
Cd1071     O1076   2.450       .  S
Cd1071     O1072   2.567       .  S
Cd1071     O1075   2.469       .  S
Cd1071     O1073   2.474       .  S
C1074      O1078   1.268       .  A
C1074      C1573   1.489       .  S
C1079      C1080   1.538       .  S
C1079      C1083   1.531   1_554  S
C1079      C1433   1.554       .  S
C1080      H1087   1.085       .  S
C1080      C1081   1.361       .  D
C1081      C1082   1.557       .  S
C1081      C1692   1.502       .  S
C1082      C1084   1.554       .  S
C1082      H1088   1.108       .  S
C1083      H1089   1.086       .  S
C1083      C1084   1.370   1_556  D
C1084      C1461   1.512   1_554  S
C1085      H1090   1.081       .  S
C1085      C1086   1.366       .  D
C1086      C1664   1.515       .  S
C1091      C1092   1.526       .  S
C1091      C1095   1.543       .  S
C1091      C1440   1.557       .  S
C1092      H1099   1.086       .  S
C1092      C1093   1.368       .  D
C1093      C1094   1.557       .  S
C1093      C1636   1.515       .  S
C1094      C1096   1.543       .  S
C1094      H1100   1.108       .  S
C1095      H1101   1.081       .  S
C1095      C1096   1.363       .  D
C1096      C1517   1.502       .  S
C1097      H1102   1.086       .  S
C1097      C1098   1.370       .  D
C1098      C1601   1.501       .  S
O1103      C1106   1.265       .  A
O1103     Cd1108   2.479       .  S
C1104      O1113   1.261       .  A
C1104      O1109   1.261       .  A
O1105      C1111   1.265       .  A
O1105     Cd1108   2.423       .  S
C1106      O1114   1.264       .  A
C1106      C1356   1.488       .  S
C1107      O1112   1.265       .  A
C1107      O1110   1.266       .  A
C1107      C1377   1.488       .  S
Cd1108     O1115   2.471       .  S
Cd1108     O1114   2.455       .  S
Cd1108     O1113   2.516       .  S
Cd1108     O1109   2.466       .  S
Cd1108     O1112   2.484       .  S
Cd1108     O1110   2.462       .  S
C1111      O1115   1.268       .  A
C1111      C1412   1.490       .  S
O1116      C1119   1.264   1_565  A
O1116     Cd1121   2.461       .  S
C1117      O1126   1.261   1_545  A
C1117      O1122   1.265       .  A
O1118      C1124   1.265       .  A
O1118     Cd1121   2.434       .  S
C1119      O1127   1.266       .  A
C1119      C1468   1.496       .  S
C1120      O1125   1.263       .  A
C1120      O1123   1.267       .  A
C1120      C1405   1.494       .  S
Cd1121     O1128   2.481       .  S
Cd1121     O1127   2.484   1_565  S
Cd1121     O1126   2.448       .  S
Cd1121     O1122   2.549   1_565  S
C1124      O1128   1.268       .  A
C1124      C1384   1.485       .  S
C1129      C1130   1.536       .  S
C1129      C1135   1.528       .  S
C1129      C1133   1.550       .  S
C1129      C1321   1.557       .  S
C1130      H1137   1.086       .  S
C1130      C1131   1.361       .  D
C1131      C1132   1.548       .  S
C1131      C1300   1.499       .  S
C1132      C1136   1.548       .  S
C1132      C1134   1.547       .  S
C1132      H1138   1.109       .  S
C1133      H1139   1.081   1_556  S
C1133      C1134   1.373       .  D
C1134      C1349   1.502       .  S
C1135      H1140   1.086       .  S
C1135      C1136   1.364       .  D
C1136      C1265   1.506       .  S
C1141      C1142   1.537       .  S
C1141      C1147   1.531       .  S
C1141      C1145   1.548       .  S
C1141      C1328   1.559       .  S
C1142      H1149   1.080       .  S
C1142      C1143   1.356       .  D
C1143      C1144   1.540       .  S
C1143      C1244   1.494       .  S
C1144      C1148   1.546       .  S
C1144      C1146   1.552       .  S
C1144      H1150   1.107       .  S
C1145      H1151   1.084   1_554  S
C1145      C1146   1.382       .  D
C1146      C1496   1.514   1_554  S
C1147      H1152   1.086       .  S
C1147      C1148   1.360       .  D
C1148      C1209   1.493       .  S
C1153      C1159   1.531       .  S
C1153      C1157   1.554       .  S
C1153      C1181   1.565       .  S
C1154      H1161   1.086       .  S
C1154      C1155   1.368       .  D
C1155      C1293   1.513       .  S
C1156      C1160   1.546       .  S
C1156      C1158   1.547       .  S
C1156      H1162   1.109       .  S
C1157      H1163   1.073       .  S
C1157      C1158   1.378       .  D
C1158      C1741   1.509       .  S
C1159      H1164   1.086       .  S
C1159      C1160   1.357       .  D
C1160      C1272   1.492       .  S
C1165      C1171   1.539       .  S
C1165      C1169   1.542       .  S
C1165      C1188   1.557       .  S
C1166      H1173   1.085       .  S
C1166      C1167   1.358       .  D
C1167      C1237   1.497       .  S
C1168      C1172   1.553   1_545  S
C1168      C1170   1.551   1_545  S
C1168      H1174   1.101       .  S
C1169      H1175   1.083       .  S
C1169      C1170   1.380       .  D
C1170      C1860   1.530       .  S
C1171      H1176   1.083       .  S
C1171      C1172   1.361       .  D
C1172      C1216   1.497       .  S
C1177      C1178   1.407   1_545  A
C1177      C1182   1.419       .  A
C1178      C1183   1.502       .  S
C1178      C1179   1.402       .  A
C1179      C1180   1.411       .  A
C1179      C1184   1.454       .  S
C1180      C1181   1.437       .  A
C1180      C1196   1.452       .  S
C1181      C1182   1.430   1_565  A
C1183      C1186   1.409       .  A
C1184      N1201   1.157       .  T
C1185      N1203   1.157       .  T
C1186      C1187   1.416       .  A
C1186      C1191   1.451       .  S
C1187      C1188   1.425       .  A
C1187      C1193   1.450       .  S
C1189      C1190   1.411       .  A
C1189      C1192   1.451       .  S
C1190      C1194   1.452       .  S
C1191      N1198   1.157       .  T
C1192      N1199   1.157       .  T
C1193      N1197   1.158       .  T
C1194      N1200   1.157       .  T
C1195      N1204   1.157       .  T
C1196      N1202   1.157       .  T
C1205      C1206   1.413       .  A
C1205      C1210   1.414       .  A
C1205      C1223   1.450       .  S
C1206      C1211   1.507       .  S
C1206      C1207   1.416       .  A
C1207      C1208   1.409       .  A
C1207      C1212   1.451       .  S
C1208      C1209   1.406       .  A
C1208      C1224   1.446       .  S
C1209      C1210   1.417       .  A
C1210      C1213   1.450       .  S
C1211      C1214   1.411       .  A
C1211      C1218   1.415       .  A
C1212      N1229   1.157       .  T
C1213      N1231   1.157   1_554  T
C1214      C1215   1.409       .  A
C1214      C1219   1.451       .  S
C1215      C1216   1.416       .  A
C1215      C1221   1.450       .  S
C1216      C1217   1.414       .  A
C1217      C1218   1.416       .  A
C1217      C1220   1.447       .  S
C1218      C1222   1.451       .  S
C1219      N1226   1.157       .  T
C1220      N1227   1.156       .  T
C1221      N1225   1.157       .  T
C1222      N1228   1.157       .  T
C1223      N1232   1.157       .  T
C1224      N1230   1.156       .  T
C1233      C1234   1.413       .  A
C1233      C1238   1.410       .  A
C1233      C1251   1.452       .  S
C1234      C1239   1.502       .  S
C1234      C1235   1.410       .  A
C1235      C1236   1.414       .  A
C1235      C1240   1.451       .  S
C1236      C1237   1.417       .  A
C1236      C1252   1.447       .  S
C1237      C1238   1.415       .  A
C1238      C1241   1.450       .  S
C1239      C1242   1.413       .  A
C1239      C1246   1.411       .  A
C1240      N1257   1.157       .  T
C1241      N1259   1.157       .  T
C1242      C1243   1.415       .  A
C1242      C1247   1.450       .  S
C1243      C1244   1.413       .  A
C1243      C1249   1.447       .  S
C1244      C1245   1.417       .  A
C1245      C1246   1.408       .  A
C1245      C1248   1.451       .  S
C1246      C1250   1.452       .  S
C1247      N1254   1.157       .  T
C1248      N1255   1.158       .  T
C1249      N1253   1.157       .  T
C1250      N1256   1.157       .  T
C1251      N1260   1.157       .  T
C1252      N1258   1.156       .  T
C1261      C1262   1.410       .  A
C1261      C1266   1.410       .  A
C1261      C1279   1.452       .  S
C1262      C1267   1.501       .  S
C1262      C1263   1.408       .  A
C1263      C1264   1.415       .  A
C1263      C1268   1.451       .  S
C1264      C1265   1.419       .  A
C1264      C1280   1.445       .  S
C1265      C1266   1.419       .  A
C1266      C1269   1.450       .  S
C1267      C1270   1.415       .  A
C1267      C1274   1.409       .  A
C1268      N1285   1.157       .  T
C1269      N1287   1.157       .  T
C1270      C1271   1.415       .  A
C1270      C1275   1.450       .  S
C1271      C1272   1.410       .  A
C1271      C1277   1.450       .  S
C1272      C1273   1.417       .  A
C1273      C1274   1.408       .  A
C1273      C1276   1.452       .  S
C1274      C1278   1.451       .  S
C1275      N1282   1.157       .  T
C1276      N1283   1.157       .  T
C1277      N1281   1.157       .  T
C1278      N1284   1.157       .  T
C1279      N1288   1.157       .  T
C1280      N1286   1.156       .  T
C1289      C1290   1.410       .  A
C1289      C1294   1.418       .  A
C1289      C1307   1.451       .  S
C1290      C1295   1.506       .  S
C1290      C1291   1.409       .  A
C1291      C1292   1.411       .  A
C1291      C1296   1.452       .  S
C1292      C1293   1.420       .  A
C1292      C1308   1.449       .  S
C1293      C1294   1.422       .  A
C1294      C1297   1.447       .  S
C1295      C1298   1.414       .  A
C1295      C1302   1.411       .  A
C1296      N1313   1.157       .  T
C1297      N1315   1.157       .  T
C1298      C1299   1.416       .  A
C1298      C1303   1.450       .  S
C1299      C1300   1.412       .  A
C1299      C1305   1.449       .  S
C1300      C1301   1.419       .  A
C1301      C1302   1.411       .  A
C1301      C1304   1.452       .  S
C1302      C1306   1.451       .  S
C1303      N1310   1.157       .  T
C1304      N1311   1.157       .  T
C1305      N1309   1.157       .  T
C1306      N1312   1.157       .  T
C1307      N1316   1.157       .  T
C1308      N1314   1.156       .  T
C1317      C1318   1.401       .  A
C1317      C1322   1.410       .  A
C1317      C1335   1.453       .  S
C1318      C1323   1.495       .  S
C1318      C1319   1.405   1_556  A
C1319      C1320   1.413   1_554  A
C1319      C1324   1.454       .  S
C1320      C1321   1.429       .  A
C1320      C1336   1.446   1_556  S
C1321      C1322   1.436       .  A
C1322      C1325   1.452       .  S
C1323      C1326   1.401   1_556  A
C1323      C1330   1.405       .  A
C1324      N1341   1.157       .  T
C1325      N1343   1.157       .  T
C1326      C1327   1.408       .  A
C1326      C1331   1.456       .  S
C1327      C1328   1.436       .  A
C1327      C1333   1.448       .  S
C1328      C1329   1.429   1_554  A
C1329      C1330   1.414       .  A
C1329      C1332   1.449       .  S
C1330      C1334   1.452       .  S
C1331      N1338   1.157       .  T
C1332      N1339   1.157       .  T
C1333      N1337   1.157       .  T
C1334      N1340   1.157       .  T
C1335      N1344   1.157       .  T
C1336      N1342   1.157       .  T
C1345      C1346   1.409       .  A
C1345      C1350   1.412   1_554  A
C1345      C1363   1.452       .  S
C1346      C1351   1.497       .  S
C1346      C1347   1.407       .  A
C1347      C1348   1.412       .  A
C1347      C1352   1.451       .  S
C1348      C1349   1.420   1_554  A
C1348      C1364   1.450       .  S
C1349      C1350   1.417       .  A
C1350      C1353   1.447       .  S
C1351      C1354   1.409       .  A
C1351      C1358   1.411       .  A
C1352      N1369   1.157       .  T
C1353      N1371   1.156       .  T
C1354      C1355   1.409       .  A
C1354      C1359   1.451   1_554  S
C1355      C1356   1.417       .  A
C1355      C1361   1.453       .  S
C1356      C1357   1.415       .  A
C1357      C1358   1.413       .  A
C1357      C1360   1.451       .  S
C1358      C1362   1.450       .  S
C1359      N1366   1.157       .  T
C1360      N1367   1.157       .  T
C1361      N1365   1.158       .  T
C1362      N1368   1.157       .  T
C1363      N1372   1.157   1_554  T
C1364      N1370   1.157       .  T
C1373      C1374   1.409       .  A
C1373      C1378   1.413   1_556  A
C1373      C1391   1.450       .  S
C1374      C1379   1.497       .  S
C1374      C1375   1.412   1_556  A
C1375      C1376   1.410       .  A
C1375      C1380   1.451       .  S
C1376      C1377   1.413       .  A
C1376      C1392   1.451       .  S
C1377      C1378   1.417       .  A
C1378      C1381   1.451       .  S
C1379      C1382   1.411       .  A
C1379      C1386   1.410       .  A
C1380      N1397   1.157       .  T
C1381      N1399   1.158   1_554  T
C1382      C1383   1.410       .  A
C1382      C1387   1.451       .  S
C1383      C1384   1.413       .  A
C1383      C1389   1.451       .  S
C1384      C1385   1.416       .  A
C1385      C1386   1.412       .  A
C1385      C1388   1.451       .  S
C1386      C1390   1.450       .  S
C1387      N1394   1.157       .  T
C1388      N1395   1.157       .  T
C1389      N1393   1.157       .  T
C1390      N1396   1.157       .  T
C1391      N1400   1.157       .  T
C1392      N1398   1.157       .  T
C1401      C1402   1.408       .  A
C1401      C1406   1.410       .  A
C1401      C1419   1.451       .  S
C1402      C1407   1.493   1_556  S
C1402      C1403   1.407       .  A
C1403      C1404   1.411       .  A
C1403      C1408   1.452   1_556  S
C1404      C1405   1.422       .  A
C1404      C1420   1.452       .  S
C1405      C1406   1.418       .  A
C1406      C1409   1.451       .  S
C1407      C1410   1.408       .  A
C1407      C1414   1.408       .  A
C1408      N1425   1.157       .  T
C1409      N1427   1.157       .  T
C1410      C1411   1.411       .  A
C1410      C1415   1.451   1_554  S
C1411      C1412   1.419       .  A
C1411      C1417   1.451       .  S
C1412      C1413   1.418       .  A
C1413      C1414   1.409       .  A
C1413      C1416   1.452       .  S
C1414      C1418   1.451       .  S
C1415      N1422   1.157       .  T
C1416      N1423   1.157       .  T
C1417      N1421   1.158       .  T
C1418      N1424   1.157       .  T
C1419      N1428   1.157       .  T
C1420      N1426   1.158       .  T
C1429      C1434   1.412       .  A
C1429      C1447   1.452       .  S
C1430      C1435   1.498   1_655  S
C1430      C1431   1.408       .  A
C1431      C1432   1.411       .  A
C1431      C1436   1.452       .  S
C1432      C1433   1.425   1_556  A
C1432      C1448   1.450       .  S
C1434      C1437   1.450       .  S
C1435      C1438   1.405       .  A
C1436      N1453   1.157       .  T
C1437      N1455   1.157       .  T
C1438      C1439   1.411       .  A
C1438      C1443   1.453   1_556  S
C1439      C1440   1.431       .  A
C1439      C1445   1.451   1_556  S
C1441      C1442   1.413       .  A
C1441      C1444   1.448       .  S
C1442      C1446   1.453   1_455  S
C1443      N1450   1.157       .  T
C1444      N1451   1.156       .  T
C1445      N1449   1.158       .  T
C1446      N1452   1.157       .  T
C1447      N1456   1.157       .  T
C1448      N1454   1.157       .  T
C1457      C1458   1.410       .  A
C1457      C1462   1.417       .  A
C1457      C1475   1.451       .  S
C1458      C1463   1.502       .  S
C1459      C1460   1.411       .  A
C1459      C1464   1.452       .  S
C1460      C1476   1.450       .  S
C1461      C1462   1.420       .  A
C1462      C1465   1.447   1_556  S
C1463      C1470   1.410       .  A
C1464      N1481   1.157       .  T
C1465      N1483   1.157       .  T
C1466      C1467   1.412       .  A
C1466      C1471   1.452       .  S
C1467      C1473   1.452       .  S
C1468      C1469   1.418   1_545  A
C1469      C1470   1.414       .  A
C1469      C1472   1.451       .  S
C1470      C1474   1.450       .  S
C1471      N1478   1.157       .  T
C1472      N1479   1.157       .  T
C1473      N1477   1.158       .  T
C1474      N1480   1.157       .  T
C1475      N1484   1.157       .  T
C1476      N1482   1.157       .  T
C1485      C1486   1.409       .  A
C1485      C1490   1.412       .  A
C1485      C1503   1.452       .  S
C1486      C1491   1.499       .  S
C1486      C1487   1.409       .  A
C1487      C1488   1.413       .  A
C1487      C1492   1.450       .  S
C1488      C1489   1.417       .  A
C1488      C1504   1.450       .  S
C1489      C1490   1.421       .  A
C1490      C1493   1.452       .  S
C1491      C1494   1.406       .  A
C1491      C1498   1.406       .  A
C1492      N1509   1.157       .  T
C1493      N1511   1.157       .  T
C1494      C1495   1.415       .  A
C1494      C1499   1.451       .  S
C1495      C1496   1.426       .  A
C1495      C1501   1.451       .  S
C1496      C1497   1.424       .  A
C1497      C1498   1.412       .  A
C1497      C1500   1.448   1_556  S
C1498      C1502   1.453       .  S
C1499      N1506   1.157       .  T
C1500      N1507   1.157       .  T
C1501      N1505   1.158       .  T
C1502      N1508   1.157       .  T
C1503      N1512   1.157       .  T
C1504      N1510   1.157       .  T
C1513      C1514   1.411       .  A
C1513      C1518   1.413   1_554  A
C1513      C1531   1.451       .  S
C1514      C1519   1.499       .  S
C1515      C1516   1.411       .  A
C1515      C1520   1.451       .  S
C1516      C1532   1.452       .  S
C1517      C1518   1.416       .  A
C1518      C1521   1.449       .  S
C1519      C1526   1.412       .  A
C1520      N1537   1.157       .  T
C1521      N1539   1.157       .  T
C1522      C1523   1.408       .  A
C1522      C1527   1.452       .  S
C1523      C1529   1.453       .  S
C1524      C1525   1.415       .  A
C1525      C1526   1.415       .  A
C1525      C1528   1.451       .  S
C1526      C1530   1.449       .  S
C1527      N1534   1.157   1_554  T
C1528      N1535   1.157       .  T
C1529      N1533   1.157       .  T
C1530      N1536   1.157       .  T
C1531      N1540   1.157       .  T
C1532      N1538   1.157       .  T
C1541      C1542   1.411       .  A
C1541      C1546   1.411       .  A
C1541      C1559   1.451   1_556  S
C1542      C1547   1.500       .  S
C1542      C1543   1.413       .  A
C1543      C1544   1.413       .  A
C1543      C1548   1.450       .  S
C1544      C1545   1.412       .  A
C1544      C1560   1.450       .  S
C1545      C1546   1.415       .  A
C1546      C1549   1.452       .  S
C1547      C1550   1.407       .  A
C1547      C1554   1.410   1_556  A
C1548      N1565   1.157       .  T
C1549      N1567   1.158       .  T
C1550      C1551   1.411   1_556  A
C1550      C1555   1.453       .  S
C1551      C1552   1.426       .  A
C1551      C1557   1.452       .  S
C1552      C1553   1.422       .  A
C1553      C1554   1.416       .  A
C1553      C1556   1.450       .  S
C1554      C1558   1.451       .  S
C1555      N1562   1.157       .  T
C1556      N1563   1.158       .  T
C1557      N1561   1.158       .  T
C1558      N1564   1.157       .  T
C1559      N1568   1.157       .  T
C1560      N1566   1.157       .  T
C1569      C1570   1.411       .  A
C1569      C1574   1.410       .  A
C1569      C1587   1.452       .  S
C1570      C1575   1.496       .  S
C1570      C1571   1.410       .  A
C1571      C1572   1.410       .  A
C1571      C1576   1.452       .  S
C1572      C1573   1.418       .  A
C1572      C1588   1.452       .  S
C1573      C1574   1.417       .  A
C1574      C1577   1.451       .  S
C1575      C1578   1.413   1_556  A
C1575      C1582   1.410       .  A
C1576      N1593   1.157       .  T
C1577      N1595   1.157       .  T
C1578      C1579   1.410       .  A
C1578      C1583   1.451       .  S
C1579      C1580   1.411       .  A
C1579      C1585   1.450       .  S
C1580      C1581   1.417       .  A
C1581      C1582   1.408   1_554  A
C1581      C1584   1.454       .  S
C1582      C1586   1.451       .  S
C1583      N1590   1.157       .  T
C1584      N1591   1.158   1_554  T
C1585      N1589   1.157       .  T
C1586      N1592   1.157       .  T
C1587      N1596   1.157       .  T
C1588      N1594   1.157       .  T
C1597      C1598   1.412       .  A
C1597      C1602   1.412       .  A
C1597      C1615   1.450       .  S
C1598      C1603   1.504       .  S
C1598      C1599   1.410       .  A
C1599      C1600   1.416       .  A
C1599      C1604   1.450       .  S
C1600      C1601   1.413       .  A
C1600      C1616   1.443       .  S
C1601      C1602   1.413       .  A
C1602      C1605   1.449       .  S
C1603      C1606   1.414       .  A
C1603      C1610   1.410       .  A
C1604      N1621   1.157       .  T
C1605      N1623   1.157       .  T
C1606      C1607   1.415       .  A
C1606      C1611   1.450       .  S
C1607      C1608   1.412       .  A
C1607      C1613   1.450       .  S
C1608      C1609   1.417       .  A
C1609      C1610   1.411       .  A
C1609      C1612   1.452       .  S
C1610      C1614   1.450       .  S
C1611      N1618   1.157       .  T
C1612      N1619   1.157       .  T
C1613      N1617   1.157       .  T
C1614      N1620   1.157       .  T
C1615      N1624   1.157       .  T
C1616      N1622   1.155       .  T
C1625      C1626   1.413       .  A
C1625      C1630   1.416       .  A
C1625      C1643   1.452       .  S
C1626      C1631   1.509       .  S
C1626      C1627   1.410       .  A
C1627      C1628   1.410       .  A
C1627      C1632   1.452       .  S
C1628      C1629   1.425       .  A
C1628      C1644   1.452       .  S
C1629      C1630   1.422       .  A
C1630      C1633   1.448       .  S
C1631      C1634   1.414       .  A
C1631      C1638   1.410       .  A
C1632      N1649   1.157       .  T
C1633      N1651   1.157       .  T
C1634      C1635   1.418       .  A
C1634      C1639   1.451       .  S
C1635      C1636   1.420       .  A
C1635      C1641   1.448       .  S
C1636      C1637   1.425       .  A
C1637      C1638   1.409       .  A
C1637      C1640   1.452       .  S
C1638      C1642   1.453       .  S
C1639      N1646   1.157       .  T
C1640      N1647   1.157       .  T
C1641      N1645   1.157       .  T
C1642      N1648   1.157       .  T
C1643      N1652   1.157       .  T
C1644      N1650   1.157       .  T
C1653      C1654   1.407       .  A
C1653      C1658   1.410       .  A
C1653      C1671   1.452       .  S
C1654      C1659   1.506       .  S
C1654      C1655   1.414       .  A
C1655      C1656   1.419       .  A
C1655      C1660   1.449       .  S
C1656      C1657   1.413       .  A
C1656      C1672   1.447       .  S
C1657      C1658   1.419       .  A
C1658      C1661   1.446       .  S
C1659      C1662   1.409       .  A
C1659      C1666   1.409       .  A
C1660      N1677   1.157       .  T
C1661      N1679   1.155       .  T
C1662      C1663   1.418       .  A
C1662      C1667   1.451       .  S
C1663      C1664   1.421       .  A
C1663      C1669   1.446       .  S
C1664      C1665   1.424       .  A
C1665      C1666   1.413       .  A
C1665      C1668   1.452       .  S
C1666      C1670   1.452       .  S
C1667      N1674   1.157       .  T
C1668      N1675   1.158       .  T
C1669      N1673   1.157       .  T
C1670      N1676   1.157       .  T
C1671      N1680   1.157       .  T
C1672      N1678   1.157       .  T
C1681      C1682   1.418       .  A
C1681      C1686   1.420       .  A
C1681      C1699   1.450       .  S
C1682      C1687   1.519       .  S
C1682      C1683   1.414       .  A
C1683      C1684   1.415       .  A
C1683      C1688   1.450       .  S
C1684      C1685   1.415       .  A
C1684      C1700   1.450       .  S
C1685      C1686   1.415       .  A
C1686      C1689   1.450       .  S
C1687      C1690   1.415       .  A
C1687      C1694   1.419       .  A
C1688      N1705   1.157       .  T
C1689      N1707   1.157       .  T
C1690      C1691   1.417       .  A
C1690      C1695   1.450       .  S
C1691      C1692   1.417       .  A
C1691      C1697   1.451       .  S
C1692      C1693   1.411       .  A
C1693      C1694   1.418       .  A
C1693      C1696   1.449       .  S
C1694      C1698   1.450       .  S
C1695      N1702   1.157       .  T
C1696      N1703   1.157       .  T
C1697      N1701   1.157   1_554  T
C1698      N1704   1.157       .  T
C1699      N1708   1.157       .  T
C1700      N1706   1.157       .  T
C1709      C1710   1.406       .  A
C1709      C1714   1.415       .  A
C1709      C1727   1.452       .  S
C1710      C1715   1.505   1_655  S
C1710      C1711   1.409       .  A
C1711      C1712   1.415       .  A
C1711      C1716   1.450       .  S
C1712      C1713   1.426       .  A
C1712      C1728   1.451       .  S
C1713      C1714   1.428       .  A
C1714      C1717   1.448       .  S
C1715      C1718   1.406       .  A
C1715      C1722   1.402       .  A
C1716      N1733   1.157       .  T
C1717      N1735   1.157       .  T
C1718      C1719   1.420       .  A
C1718      C1723   1.453       .  S
C1719      C1720   1.431       .  A
C1719      C1725   1.445       .  S
C1720      C1721   1.438       .  A
C1721      C1722   1.413       .  A
C1721      C1724   1.454       .  S
C1722      C1726   1.453   1_455  S
C1723      N1730   1.157       .  T
C1724      N1731   1.158       .  T
C1725      N1729   1.158       .  T
C1726      N1732   1.157       .  T
C1727      N1736   1.157       .  T
C1728      N1734   1.157       .  T
C1737      C1738   1.409       .  A
C1737      C1742   1.414       .  A
C1738      C1743   1.504       .  S
C1738      C1739   1.409   1_545  A
C1739      C1740   1.414       .  A
C1739      C1744   1.453       .  S
C1740      C1741   1.421       .  A
C1740      C1756   1.446       .  S
C1741      C1742   1.421   1_565  A
C1743      C1750   1.406   1_545  A
C1744      N1761   1.157       .  T
C1745      N1763   1.157       .  T
C1746      C1747   1.415       .  A
C1746      C1751   1.452       .  S
C1747      C1753   1.451       .  S
C1748      C1749   1.428   1_545  A
C1749      C1750   1.415       .  A
C1749      C1752   1.445       .  S
C1750      C1754   1.453       .  S
C1751      N1758   1.157       .  T
C1752      N1759   1.157       .  T
C1753      N1757   1.157       .  T
C1754      N1760   1.157       .  T
C1755      N1764   1.157       .  T
C1756      N1762   1.157       .  T
C1765      C1766   1.408       .  A
C1765      C1770   1.412       .  A
C1765      C1783   1.454       .  S
C1766      C1771   1.508       .  S
C1766      C1767   1.409       .  A
C1767      C1768   1.417       .  A
C1767      C1772   1.452       .  S
C1768      C1769   1.430       .  A
C1768      C1784   1.449       .  S
C1769      C1770   1.427       .  A
C1770      C1773   1.446       .  S
C1771      C1774   1.414       .  A
C1771      C1778   1.411       .  A
C1772      N1789   1.157       .  T
C1773      N1791   1.157       .  T
C1774      C1775   1.415       .  A
C1774      C1779   1.453       .  S
C1775      C1776   1.419       .  A
C1775      C1781   1.448       .  S
C1776      C1777   1.421       .  A
C1777      C1778   1.411       .  A
C1777      C1780   1.452       .  S
C1778      C1782   1.451       .  S
C1779      N1786   1.157       .  T
C1780      N1787   1.157       .  T
C1781      N1785   1.157       .  T
C1782      N1788   1.157       .  T
C1783      N1792   1.157       .  T
C1784      N1790   1.158       .  T
C1793      C1794   1.414       .  A
C1793      C1798   1.418       .  A
C1793      C1811   1.452       .  S
C1794      C1799   1.514       .  S
C1794      C1795   1.412       .  A
C1795      C1796   1.415       .  A
C1795      C1800   1.452       .  S
C1796      C1797   1.422       .  A
C1796      C1812   1.450       .  S
C1797      C1798   1.418       .  A
C1798      C1801   1.446       .  S
C1799      C1802   1.412       .  A
C1799      C1806   1.411       .  A
C1800      N1817   1.157       .  T
C1801      N1819   1.156       .  T
C1802      C1803   1.414       .  A
C1802      C1807   1.451       .  S
C1803      C1804   1.425       .  A
C1803      C1809   1.448       .  S
C1804      C1805   1.429       .  A
C1805      C1806   1.418       .  A
C1805      C1808   1.452       .  S
C1806      C1810   1.451       .  S
C1807      N1814   1.157       .  T
C1808      N1815   1.158       .  T
C1809      N1813   1.158       .  T
C1810      N1816   1.157       .  T
C1811      N1820   1.157       .  T
C1812      N1818   1.157       .  T
C1821      C1822   1.412       .  A
C1821      C1826   1.415       .  A
C1821      C1839   1.450       .  S
C1822      C1827   1.507       .  S
C1822      C1823   1.412       .  A
C1823      C1824   1.416       .  A
C1823      C1828   1.450       .  S
C1824      C1825   1.413       .  A
C1824      C1840   1.447       .  S
C1825      C1826   1.414       .  A
C1826      C1829   1.450       .  S
C1827      C1830   1.411       .  A
C1827      C1834   1.413       .  A
C1828      N1845   1.157       .  T
C1829      N1847   1.157       .  T
C1830      C1831   1.416       .  A
C1830      C1835   1.450       .  S
C1831      C1832   1.416       .  A
C1831      C1837   1.448       .  S
C1832      C1833   1.416       .  A
C1833      C1834   1.414       .  A
C1833      C1836   1.451       .  S
C1834      C1838   1.450       .  S
C1835      N1842   1.157       .  T
C1836      N1843   1.157       .  T
C1837      N1841   1.157       .  T
C1838      N1844   1.157       .  T
C1839      N1848   1.157       .  T
C1840      N1846   1.156       .  T
C1849      C1854   1.415       .  A
C1849      C1867   1.454       .  S
C1850      C1855   1.503       .  S
C1850      C1851   1.405       .  A
C1851      C1852   1.413       .  A
C1851      C1856   1.452       .  S
C1852      C1853   1.432   1_565  A
C1852      C1868   1.452       .  S
C1854      C1857   1.448       .  S
C1855      C1862   1.406       .  A
C1856      N1873   1.157       .  T
C1857      N1875   1.157       .  T
C1858      C1859   1.415       .  A
C1858      C1863   1.452       .  S
C1859      C1865   1.450       .  S
C1860      C1861   1.432       .  A
C1861      C1862   1.414       .  A
C1861      C1864   1.449       .  S
C1862      C1866   1.455       .  S
C1863      N1870   1.157       .  T
C1864      N1871   1.158       .  T
C1865      N1869   1.157       .  T
C1866      N1872   1.157       .  T
C1867      N1876   1.157       .  T
C1868      N1874   1.158       .  T
C1877      C1878   1.407       .  A
C1877      C1882   1.411       .  A
C1877      C1895   1.454       .  S
C1878      C1883   1.508       .  S
C1878      C1879   1.409       .  A
C1879      C1880   1.417       .  A
C1879      C1884   1.454       .  S
C1880      C1881   1.433       .  A
C1880      C1896   1.449       .  S
C1881      C1882   1.433       .  A
C1882      C1885   1.451       .  S
C1883      C1886   1.410       .  A
C1883      C1890   1.409       .  A
C1884      N1901   1.157       .  T
C1885      N1903   1.158       .  T
C1886      C1887   1.413       .  A
C1886      C1891   1.456       .  S
C1887      C1888   1.429       .  A
C1887      C1893   1.449       .  S
C1888      C1889   1.425       .  A
C1889      C1890   1.416       .  A
C1889      C1892   1.449       .  S
C1890      C1894   1.451       .  S
C1891      N1898   1.157       .  T
C1892      N1899   1.157       .  T
C1893      N1897   1.158       .  T
C1894      N1900   1.157       .  T
C1895      N1904   1.157       .  T
C1896      N1902   1.157       .  T
C1905      C1906   1.417       .  A
C1905      C1910   1.417       .  A
C1905      C1923   1.450       .  S
C1906      C1911   1.511       .  S
C1906      C1907   1.413       .  A
C1907      C1908   1.412       .  A
C1907      C1912   1.451       .  S
C1908      C1909   1.415       .  A
C1908      C1924   1.450       .  S
C1909      C1910   1.411       .  A
C1910      C1913   1.448       .  S
C1911      C1914   1.413       .  A
C1911      C1918   1.412       .  A
C1912      N1929   1.157       .  T
C1913      N1931   1.157       .  T
C1914      C1915   1.417       .  A
C1914      C1919   1.452       .  S
C1915      C1916   1.418       .  A
C1915      C1921   1.446       .  S
C1916      C1917   1.421       .  A
C1917      C1918   1.414       .  A
C1917      C1920   1.452       .  S
C1918      C1922   1.451       .  S
C1919      N1926   1.157       .  T
C1920      N1927   1.157       .  T
C1921      N1925   1.156       .  T
C1922      N1928   1.157       .  T
C1923      N1932   1.157       .  T
C1924      N1930   1.157       .  T
C1933      C1934   1.421       .  A
C1933      C1938   1.423       .  A
C1933      C1951   1.450       .  S
C1934      C1939   1.522       .  S
C1934      C1935   1.416       .  A
C1935      C1936   1.413       .  A
C1935      C1940   1.450       .  S
C1936      C1937   1.412       .  A
C1936      C1952   1.450       .  S
C1937      C1938   1.412       .  A
C1938      C1941   1.449       .  S
C1939      C1942   1.417       .  A
C1939      C1946   1.416       .  A
C1940      N1957   1.157       .  T
C1941      N1959   1.157       .  T
C1942      C1943   1.422       .  A
C1942      C1947   1.450       .  S
C1943      C1944   1.416       .  A
C1943      C1949   1.448       .  S
C1944      C1945   1.420       .  A
C1945      C1946   1.416       .  A
C1945      C1948   1.452       .  S
C1946      C1950   1.451       .  S
C1947      N1954   1.157       .  T
C1948      N1955   1.157       .  T
C1949      N1953   1.157       .  T
C1950      N1956   1.157       .  T
C1951      N1960   1.157       .  T
C1952      N1958   1.157       .  T
