geometry optimzed in LAMMPS
_audit_creation_date              2020-11-30 
_audit_creation_method            'lammps2cif' 
_symmetry_space_group_name_H-M    'P1' 
_symmetry_Int_Tables_number       1 
_symmetry_cell_setting            triclinic 
loop_ 
_symmetry_equiv_pos_as_xyz 
  x,y,z 
_cell_length_a                    30.52893079 
_cell_length_b                    30.320264658507405 
_cell_length_c                    67.35597009380874 
_cell_angle_alpha                 90.33132914059337 
_cell_angle_beta                  90.94317349950288 
_cell_angle_gamma                 122.68199448202125 
loop_ 
_atom_site_label 
_atom_site_type_symbol 
_atom_site_fract_x 
_atom_site_fract_y 
_atom_site_fract_z 
_atom_site_charge 
O1          O  0.34116810  0.28373625  0.98705828    -0.80900
O2          O  0.32302292  0.11198294  0.04162466    -0.65500
O3          O  0.36545355  0.21747602  0.00261795    -1.12200
C4          C  0.27774100  0.05470122  0.96812116     1.06000
O5          O  0.32057795  0.04988797  0.02092040    -0.78800
O6          O  0.41435040  0.13858345  0.97961833    -0.66300
Ni7        Ni  0.37962414  0.28045046  0.01031040     1.34900
C8          C  0.42048294  0.17609478  0.96893088     0.84800
O9          O  0.41726128  0.19817511  0.02835222    -0.79300
O10         O  0.42316023  0.27603606  0.03259065    -0.89600
C11         C  0.31225077  0.06447002  0.03767900     0.84300
O12         O  0.31729207  0.25499427  0.02600431    -0.67800
O13         O  0.30817342  0.04781264  0.97960063    -0.87100
C14         C  0.27740599  0.20903885  0.02892836     0.85200
C15         C  0.44046672  0.24505352  0.03604900     1.06700
H16         H  0.29078290  0.09846087  0.00469805     0.38500
O17         O  0.32692422  0.12545533  0.00271504    -1.09700
O18         O  0.38598585  0.18750045  0.96873082    -0.66400
Ni19       Ni  0.32304472  0.16497791  0.98363784     1.26300
O20         O  0.27844228  0.16739995  0.02475088    -0.66600
O21         O  0.28149709  0.10010746  0.96685183    -0.78900
C22         C  0.32167861  0.25675244  0.97067100     0.84600
O23         O  0.31442602  0.21118769  0.96724352    -0.66100
Ni24       Ni  0.36336516  0.09314249  0.99959226     1.27400
Ni25       Ni  0.34568717  0.17272565  0.02432185     1.26100
H26         H  0.39994912  0.22730636  0.99909796     0.39100
O27         O  0.29326405  0.04276624  0.48298953    -0.80900
O28         O  0.28548657  0.18200934  0.52369960    -0.65500
O29         O  0.32231067  0.12523323  0.50413485    -1.12200
C30         C  0.44481402  0.27351395  0.46874491     1.06000
O31         O  0.33073178  0.26957224  0.51920644    -0.78800
O32         O  0.33517439  0.26584417  0.47910542    -0.66300
Ni33       Ni  0.34328749  0.07575200  0.50386897     1.34900
C34         C  0.30145604  0.22198069  0.47107812     0.84800
O35         O  0.30207416  0.10765303  0.54275852    -0.79300
O36         O  0.29391158  0.03934538  0.52456999    -0.89600
C37         C  0.29182712  0.22778071  0.52636473     0.84300
O38         O  0.40086813  0.10447001  0.52290334    -0.67800
O39         O  0.44200608  0.30237900  0.48216348    -0.87100
C40         C  0.42698628  0.14776862  0.53217442     0.85200
C41         C  0.28270957  0.05719053  0.53968556     1.06700
H42         H  0.41790940  0.23418224  0.50821029     0.38500
O43         O  0.38188259  0.22189988  0.50572226    -1.09700
O44         O  0.30286361  0.18071070  0.47446632    -0.66400
Ni45       Ni  0.36049116  0.17277658  0.48434534     1.26300
O46         O  0.40932639  0.17703421  0.53337621    -0.66600
O47         O  0.40898995  0.22458609  0.46625177    -0.78900
C48         C  0.30647345  0.06420441  0.46610701     0.84600
O49         O  0.33616246  0.11508487  0.46452681    -0.66100
Ni50       Ni  0.38542521  0.28489026  0.50066481     1.27400
Ni51       Ni  0.34395346  0.17166489  0.52635629     1.26100
H52         H  0.28531473  0.10866026  0.50162035     0.39100
O53         O  0.34859502  0.02948626  0.76983034    -0.74400
O54         O  0.28989545  0.44690501  0.72558559    -0.74400
O55         O  0.28927363  0.44182417  0.76688163    -0.74500
O56         O  0.35830455  0.03781501  0.73014534    -0.74500
O57         O  0.41998577  0.01942159  0.73099229    -0.74500
O58         O  0.36086821  0.43917945  0.76749784    -0.74400
O59         O  0.35955076  0.44126528  0.72628978    -0.74400
O60         O  0.41264165  0.01492241  0.77168321    -0.74500
Ni61       Ni  0.31713406  0.49653204  0.74786927     1.25400
Ni62       Ni  0.39281216  0.49210390  0.74737380     1.25400
C63         C  0.38977379  0.03653406  0.77848178     0.87800
C64         C  0.31739177  0.43120829  0.71764436     0.87700
C65         C  0.31734489  0.42706863  0.77496840     0.87700
C66         C  0.39940091  0.04300923  0.72331274     0.87900
O67         O  0.16023426  0.06716886  0.73328830    -0.74400
O68         O  0.09483465  0.10876250  0.77130275    -0.74400
O69         O  0.10058460  0.10691013  0.73012571    -0.74500
O70         O  0.15355163  0.06766618  0.77333739    -0.74500
O71         O  0.22416299  0.14881245  0.77561126    -0.74500
O72         O  0.17225683  0.18714497  0.73098139    -0.74400
O73         O  0.16590485  0.18965536  0.77221160    -0.74400
O74         O  0.23143085  0.14745467  0.73572358    -0.74500
Ni75       Ni  0.12451594  0.08488097  0.75196668     1.25400
Ni76       Ni  0.20071944  0.17126453  0.75365135     1.25400
C77         C  0.20665078  0.10142699  0.72791609     0.87800
C78         C  0.12176617  0.15498380  0.77919880     0.87700
C79         C  0.12988842  0.15157727  0.72213777     0.87700
C80         C  0.19645902  0.10189695  0.78189409     0.87900
O81         O  0.99899923  0.41024791  0.76693550    -0.74400
O82         O  0.41326345  0.36885380  0.72738235    -0.74400
O83         O  0.41327179  0.37291987  0.76819920    -0.74500
O84         O  0.99781522  0.40545231  0.72493779    -0.74500
O85         O  0.00311074  0.33514052  0.72604383    -0.74500
O86         O  0.41738942  0.30168266  0.76911771    -0.74400
O87         O  0.41850221  0.29825588  0.72874934    -0.74400
O88         O  0.00699746  0.34166663  0.76730007    -0.74500
Ni89       Ni  0.46473918  0.40399483  0.74830917     1.25400
Ni90       Ni  0.46941006  0.32796168  0.74956235     1.25400
C91         C  0.01538673  0.38379603  0.77557284     0.87800
C92         C  0.40214122  0.32449321  0.72032593     0.87700
C93         C  0.40237204  0.33027687  0.77639459     0.87700
C94         C  0.01199783  0.37651958  0.71720060     0.87900
C95         C  0.46908680  0.15633749  0.54693312     0.02300
C96         C  0.02695957  0.18349353  0.54515683     0.02300
C97         C  0.05516071  0.18373664  0.56211286    -0.18200
C98         C  0.03093990  0.16038295  0.57974410     0.02300
C99         C  0.47806207  0.13852862  0.58171837     0.02300
C100        C  0.44746187  0.13448563  0.56538012    -0.18200
H101        H  0.40577173  0.11495254  0.56735848     0.04300
H102        H  0.09728734  0.20389116  0.56183268     0.04300
C103        C  0.20923095  0.46022468  0.55060066     0.02300
C104        C  0.24694035  0.01803201  0.55511468     0.02300
C105        C  0.25207074  0.04151151  0.57388987    -0.18200
C106        C  0.22059227  0.01400228  0.58975171     0.02300
C107        C  0.17616955  0.45758854  0.58405787     0.02300
C108        C  0.17423542  0.43306657  0.56620773    -0.18200
H109        H  0.14350906  0.39208897  0.56443456     0.04300
H110        H  0.28191481  0.08248430  0.57658674     0.04300
C111        C  0.31351344  0.28139062  0.95305070     0.02300
C112        C  0.28837191  0.31000904  0.95218956     0.02300
C113        C  0.28665065  0.33206178  0.93401750    -0.18200
C114        C  0.30598204  0.32417788  0.91676629     0.02300
C115        C  0.32723526  0.29308995  0.91743334     0.02300
C116        C  0.33225321  0.27358435  0.93529499    -0.18200
H117        H  0.35041952  0.25113650  0.93514793     0.04300
H118        H  0.26958015  0.35546308  0.93312385     0.04300
C119        C  0.24394714  0.27178550  0.54091147     0.02300
C120        C  0.26323506  0.23705497  0.54249643     0.02300
C121        C  0.27706327  0.22910174  0.56175697    -0.18200
C122        C  0.27805664  0.25767840  0.57846055     0.02300
C123        C  0.26506949  0.29549213  0.57629233     0.02300
C124        C  0.24780684  0.30161642  0.55785783    -0.18200
H125        H  0.23371853  0.32764556  0.55720269     0.04300
H126        H  0.29229095  0.20423169  0.56354020     0.04300
C127        C  0.24308775  0.01182355  0.95274746     0.02300
C128        C  0.19987526  0.46481703  0.95062395     0.02300
C129        C  0.16809949  0.44624211  0.93305836    -0.18200
C130        C  0.18582360  0.46949239  0.91444349     0.02300
C131        C  0.22748671  0.00984499  0.91678051     0.02300
C132        C  0.26062295  0.02940821  0.93349916    -0.18200
H133        H  0.30093346  0.06052499  0.93162286     0.04300
H134        H  0.12942261  0.41095921  0.93359305     0.04300
C135        C  0.02207809  0.23208004  0.95038392     0.02300
C136        C  0.45865360  0.19607688  0.95185928     0.02300
C137        C  0.43037058  0.17402540  0.93377581    -0.18200
C138        C  0.45422804  0.17525559  0.91619807     0.02300
C139        C  0.01378629  0.20001932  0.91561713     0.02300
C140        C  0.04372066  0.22581795  0.93276082    -0.18200
H141        H  0.08526405  0.24309830  0.93177370     0.04300
H142        H  0.38830233  0.15370992  0.93339784     0.04300
O143        O  0.17812828  0.22236034  0.47715944    -0.80900
O144        O  0.16940565  0.37448745  0.53371725    -0.65500
O145        O  0.12552109  0.26788410  0.49197349    -1.12200
C146        C  0.22516879  0.43263288  0.45871088     1.06000
O147        O  0.21408808  0.44727264  0.51555430    -0.78800
O148        O  0.10571313  0.38471857  0.47626561    -0.66300
Ni149      Ni  0.12351463  0.20530584  0.49593069     1.34900
C150        C  0.08035295  0.34140578  0.46703309     0.84800
O151        O  0.09670888  0.26228496  0.53148662    -0.79300
O152        O  0.06761006  0.18586645  0.51473832    -0.89600
C153        C  0.19899231  0.42581824  0.53237387     0.84300
O154        O  0.17425295  0.22488494  0.51709098    -0.67800
O155        O  0.21313063  0.45032651  0.47368863    -0.87100
C156        C  0.20669190  0.26906710  0.52509918     0.85200
C157        C  0.06325004  0.21261941  0.52861732     1.06700
H158        H  0.22086158  0.38107494  0.49696318     0.38500
O159        O  0.18431808  0.36472610  0.49424452    -1.13500
O160        O  0.09921438  0.31343103  0.46525675    -0.66400
Ni161      Ni  0.16412774  0.31896518  0.47192038     1.26300
O162        O  0.20333688  0.30927302  0.52233892    -0.66600
O163        O  0.20583208  0.38241122  0.45561233    -0.78900
C164        C  0.21767437  0.26525174  0.47106015     0.84600
O165        O  0.22334019  0.31020041  0.47480168    -0.66100
Ni166      Ni  0.16398378  0.41443072  0.49472758     1.27400
Ni167      Ni  0.14535459  0.31631126  0.51356700     1.26100
H168        H  0.08933552  0.25490472  0.48937367     0.39100
O169        O  0.05674504  0.31534597  0.01850164    -0.80900
O170        O  0.22172608  0.31961529  0.96422232    -0.65500
O171        O  0.13481227  0.32779391  0.00005311    -1.12200
C172        C  0.26153752  0.44238991  0.03262377     1.06000
O173        O  0.28548592  0.33102311  0.98596261    -0.78800
O174        O  0.25942402  0.31311945  0.02483860    -0.66300
Ni175      Ni  0.09635378  0.35801579  0.99632503     1.34900
C176        C  0.21298796  0.27445940  0.02778998     0.84800
O177        O  0.11180653  0.28396075  0.96361655    -0.79300
O178        O  0.05275205  0.29946341  0.97701470    -0.89600
C179        C  0.26294569  0.31930999  0.96873183     0.84300
O180        O  0.13738620  0.40873376  0.97551419    -0.67800
O181        O  0.28903167  0.42191062  0.02873403    -0.87100
C182        C  0.17920192  0.42191327  0.96644691     0.85200
C183        C  0.06406250  0.27338920  0.96503238     1.06700
H184        H  0.23829867  0.40087388  0.99680004     0.38500
O185        O  0.22645670  0.36555743  0.00034180    -1.09700
O186        O  0.17314442  0.27753279  0.02292815    -0.66400
Ni187      Ni  0.18177877  0.34666424  0.02203073     1.26300
O188        O  0.19695989  0.39223831  0.96717891    -0.66600
O189        O  0.21334971  0.42071705  0.02633553    -0.78900
C190        C  0.07347501  0.31158310  0.03572903     0.84600
O191        O  0.12187789  0.32552123  0.03953846    -0.66100
Ni192      Ni  0.28741747  0.37421455  0.00779660     1.27400
Ni193      Ni  0.17496347  0.32594888  0.98085085     1.26100
H194        H  0.10944738  0.29093755  0.00201108     0.39100
O195        O  0.49524832  0.18257903  0.23179420    -0.74400
O196        O  0.09836306  0.24262367  0.27002746    -0.74400
O197        O  0.08777505  0.24302679  0.22872203    -0.74500
O198        O  0.50914329  0.19560036  0.27249908    -0.74500
O199        O  0.49235319  0.11437338  0.27391309    -0.74500
O200        O  0.05172318  0.15661375  0.22795427    -0.74400
O201        O  0.06195695  0.15617975  0.26922120    -0.74400
O202        O  0.48097793  0.10236992  0.23379677    -0.74500
Ni203      Ni  0.04708999  0.23797033  0.25116950     1.25400
Ni204      Ni  0.00864063  0.14547071  0.25032002     1.25400
C205        C  0.47204085  0.13471893  0.22563322     0.87800
C206        C  0.09458338  0.20133782  0.27705096     0.87700
C207        C  0.07922299  0.20156487  0.21979254     0.87700
C208        C  0.48774674  0.15115543  0.28089960     0.87900
O209        O  0.29753733  0.34056829  0.26623291    -0.74400
O210        O  0.33635768  0.26503919  0.23252801    -0.74400
O211        O  0.33666265  0.28062024  0.27231471    -0.74500
O212        O  0.29762444  0.32405341  0.22642895    -0.74500
O213        O  0.37853864  0.39488234  0.22525471    -0.74500
O214        O  0.41664909  0.35215732  0.27160486    -0.74400
O215        O  0.41713798  0.33530669  0.23165923    -0.74400
O216        O  0.37789077  0.41134122  0.26485557    -0.74500
Ni217      Ni  0.31415061  0.30003186  0.24947736     1.25400
Ni218      Ni  0.40047189  0.37590756  0.24828517     1.25400
C219        C  0.33180923  0.38790485  0.27171327     0.87800
C220        C  0.38242312  0.28863575  0.22566013     0.87700
C221        C  0.38192651  0.31050281  0.28008839     0.87700
C222        C  0.33270690  0.36523420  0.21781621     0.87900
C223        C  0.29188900  0.03048851  0.44767818     0.02300
C224        C  0.26244450  0.47164218  0.44357469     0.02300
C225        C  0.26381585  0.44820639  0.42547083    -0.18200
C226        C  0.29490496  0.47734145  0.40966773     0.02300
C227        C  0.31420078  0.03332946  0.41252149     0.02300
C228        C  0.32565993  0.05530040  0.43165892    -0.18200
H229        H  0.36247405  0.09172825  0.43434471     0.04300
H230        H  0.23895491  0.40618216  0.42310184     0.04300
O231        O  0.19348049  0.48757354  0.27152290    -0.74400
O232        O  0.20570228  0.07716612  0.22921604    -0.74400
O233        O  0.20330267  0.08775951  0.27003396    -0.74500
O234        O  0.19539800  0.47204008  0.23142982    -0.74500
O235        O  0.11428213  0.45323697  0.22857133    -0.74500
O236        O  0.12442332  0.07503905  0.26669028    -0.74400
O237        O  0.12593471  0.06237643  0.22587571    -0.74400
O238        O  0.11207466  0.46841367  0.26829967    -0.74500
Ni239      Ni  0.18648645  0.03225625  0.25131636     1.25400
Ni240      Ni  0.10138894  0.01756532  0.24852093     1.25400
C241        C  0.14735617  0.46646533  0.27804415     0.87800
C242        C  0.17159825  0.08028867  0.21921790     0.87700
C243        C  0.16809836  0.09521915  0.27609399     0.87700
C244        C  0.14921569  0.44427061  0.22377967     0.87900
C245        C  0.28149279  0.47949031  0.05009161     0.02300
C246        C  0.29190307  0.02554879  0.05392649     0.02300
C247        C  0.30915173  0.04761681  0.07319987    -0.18200
C248        C  0.29369377  0.01670450  0.09004903     0.02300
C249        C  0.30595675  0.48091474  0.08471079     0.02300
C250        C  0.28026864  0.45366478  0.06740932    -0.18200
H251        H  0.26024045  0.41117904  0.06735024     0.04300
H252        H  0.33781445  0.08923055  0.07509856     0.04300
C253        C  0.26384629  0.22142726  0.45538214     0.02300
C254        C  0.24799835  0.25909887  0.45483141     0.02300
C255        C  0.23705710  0.27237447  0.43598293    -0.18200
C256        C  0.23061330  0.24323773  0.41863619     0.02300
C257        C  0.23494917  0.19911479  0.42003291     0.02300
C258        C  0.25421084  0.19056521  0.43789410    -0.18200
H259        H  0.26316702  0.16051221  0.43793541     0.04300
H260        H  0.22742465  0.30191053  0.43508933     0.04300
C261        C  0.20651398  0.23144198  0.04151543     0.02300
C262        C  0.23558795  0.20508189  0.04234237     0.02300
C263        C  0.23322636  0.17914978  0.06006425    -0.18200
C264        C  0.20800315  0.18095156  0.07682154     0.02300
C265        C  0.17630632  0.20146677  0.07554098     0.02300
C266        C  0.17485574  0.22493254  0.05789505    -0.18200
H267        H  0.15264461  0.24328855  0.05787709     0.04300
H268        H  0.25652140  0.16213965  0.06179170     0.04300
C269        C  0.48598732  0.29746709  0.45309249     0.02300
C270        C  0.04071556  0.33344237  0.45168088     0.02300
C271        C  0.06678071  0.35389359  0.43384389    -0.18200
C272        C  0.04082292  0.35042888  0.41646947     0.02300
C273        C  0.49040915  0.30556208  0.41708846     0.02300
C274        C  0.46618016  0.27728631  0.43395323    -0.18200
H275        H  0.42866420  0.24096186  0.43193243     0.04300
H276        H  0.10883509  0.37282288  0.43322459     0.04300
C277        C  0.47702678  0.25766443  0.05363492     0.02300
C278        C  0.03617400  0.29519130  0.05264171     0.02300
C279        C  0.05898116  0.30442324  0.07198458    -0.18200
C280        C  0.03451535  0.30840328  0.08870894     0.02300
C281        C  0.47930099  0.25653636  0.09027537     0.02300
C282        C  0.45153251  0.24079575  0.07204111    -0.18200
H283        H  0.40936485  0.21668769  0.07221025     0.04300
H284        H  0.09791813  0.31243305  0.07408833     0.04300
C285        C  0.13766702  0.44705005  0.29842575    -0.19800
C286        C  0.09280753  0.39931320  0.30378460     0.36400
C287        C  0.08456098  0.38664239  0.32399363    -0.25800
C288        C  0.11887443  0.42177059  0.33883617     0.02800
C289        C  0.16359530  0.46944067  0.33330040     0.27600
C290        C  0.17299961  0.48103511  0.31319866    -0.24900
N291        N  0.05656342  0.36364199  0.28882357    -0.82300
H292        H  0.05031594  0.34997355  0.32823424     0.13400
C293        C  0.10646653  0.40763730  0.35992224     0.02800
N294        N  0.19920730  0.50659664  0.34796619    -0.80900
H295        H  0.20711552  0.51826059  0.30915249     0.18200
C296        C  0.10043759  0.36094342  0.36668301    -0.25700
C297        C  0.08381784  0.34379737  0.38597026     0.36300
C298        C  0.07111393  0.37274515  0.39836439    -0.19800
C299        C  0.08121435  0.42109152  0.39229101    -0.25000
C300        C  0.09859271  0.43873649  0.37323999     0.27700
H301        H  0.10842361  0.33774495  0.35689097     0.13400
N302        N  0.08009058  0.29719948  0.39264419    -0.82300
H303        H  0.07316215  0.44422239  0.40208074     0.18300
N304        N  0.10657511  0.48762795  0.36748873    -0.80900
H305        H  0.04205241  0.27036474  0.39697771     0.33900
H306        H  0.10478583  0.30700910  0.40508061     0.38400
H307        H  0.07170095  0.48585561  0.36932623     0.33900
H308        H  0.13452905  0.51649633  0.37722309     0.30600
H309        H  0.23654690  0.51532577  0.34503093     0.33900
H310        H  0.20027227  0.54134473  0.34625036     0.30600
H311        H  0.02670172  0.32951818  0.29533872     0.38400
H312        H  0.03879973  0.38129391  0.28214576     0.33900
C313        C  0.13560024  0.40409348  0.20788920    -0.19800
C314        C  0.17348100  0.40467974  0.19586968     0.36400
C315        C  0.15817856  0.37792774  0.17730593    -0.25800
C316        C  0.10616553  0.35100536  0.17065890     0.02800
C317        C  0.06821076  0.34495230  0.18376222     0.27600
C318        C  0.08290230  0.37082598  0.20224598    -0.24900
N319        N  0.22742137  0.43507059  0.20180543    -0.82300
H320        H  0.18703834  0.38050430  0.16751343     0.13400
C321        C  0.09333870  0.34096482  0.14906195     0.02800
N322        N  0.01479899  0.31642305  0.17759231    -0.80900
H323        H  0.05281896  0.36817522  0.21146096     0.18200
C324        C  0.07655196  0.29228133  0.14027662    -0.25700
C325        C  0.06035417  0.28175816  0.12017234     0.36300
C326        C  0.06057242  0.32070453  0.10866019    -0.19800
C327        C  0.07891064  0.36990666  0.11737123    -0.25000
C328        C  0.09436392  0.37982470  0.13746140     0.27700
H329        H  0.07556440  0.26233826  0.14917024     0.13400
N330        N  0.59689532  0.27071697  0.11914459    -0.82300
H331        H  0.07879616  0.39996918  0.10880529     0.18300
N332        N  0.10905955  0.42892237  0.14634975    -0.80900
H333        H  0.57469462  0.24025914  0.12886159     0.33900
H334        H  0.58609304  0.25495208  0.10476165     0.38400
H335        H  0.14071365  0.45784864  0.13866525     0.33900
H336        H  0.07855524  0.43430406  0.14368926     0.30600
H337        H  0.99350133  0.28947943  0.18860150     0.33900
H338        H  0.00306062  0.34287326  0.17726265     0.30600
H339        H  0.23172402  0.41790163  0.21448644     0.38400
H340        H  0.24955937  0.43210313  0.19091464     0.33900
C341        C  0.17308969  0.11697467  0.29640745    -0.19800
C342        C  0.22056180  0.15718599  0.30499488     0.36400
C343        C  0.22592295  0.16427744  0.32573919    -0.25800
C344        C  0.18598853  0.13013265  0.33865072     0.02800
C345        C  0.13696579  0.09244900  0.32962998     0.27600
C346        C  0.13099967  0.08764911  0.30886779    -0.24900
N347        N  0.26372406  0.19259611  0.29315237    -0.82300
H348        H  0.26206019  0.19744503  0.33163486     0.13400
C349        C  0.19660902  0.13602246  0.36101734     0.02800
N350        N  0.09305601  0.05680399  0.34108305    -0.80900
H351        H  0.09391507  0.05666540  0.30256526     0.18200
C352        C  0.15711777  0.12551131  0.37442665    -0.25700
C353        C  0.16728444  0.13587286  0.39490312     0.36300
C354        C  0.21922054  0.16298461  0.40228014    -0.19800
C355        C  0.25754606  0.16772955  0.38971771    -0.25000
C356        C  0.24680083  0.15350927  0.36937874     0.27700
H357        H  0.11830113  0.11234815  0.36925378     0.13400
N358        N  0.12415202  0.11981153  0.40775320    -0.82300
H359        H  0.29689955  0.18595770  0.39539570     0.18300
N360        N  0.28780868  0.15961025  0.35715278    -0.80900
H361        H  0.10503628  0.13832361  0.40346624     0.33900
H362        H  0.13666970  0.13047946  0.42252532     0.38400
H363        H  0.32037500  0.16857339  0.36582453     0.33900
H364        H  0.27505611  0.12386517  0.35009107     0.30600
H365        H  0.06358338  0.06376687  0.33833063     0.33900
H366        H  0.07903175  0.01893218  0.33576866     0.30600
H367        H  0.25381164  0.18587651  0.27804357     0.38400
H368        H  0.27114291  0.22979482  0.29636281     0.33900
C369        C  0.18312073  0.09759082  0.19856038    -0.19800
C370        C  0.17687117  0.13672327  0.19080891     0.36400
C371        C  0.18702660  0.14984777  0.17072335    -0.25800
C372        C  0.20278035  0.12406375  0.15812462     0.02800
C373        C  0.21013478  0.08571637  0.16615130     0.27600
C374        C  0.20018452  0.07276713  0.18618897    -0.24900
N375        N  0.16380972  0.16577908  0.20339320    -0.82300
H376        H  0.18367507  0.18086444  0.16491387     0.13400
C377        C  0.21088650  0.13742791  0.13668465     0.02800
N378        N  0.22829528  0.06011590  0.15412835    -0.80900
H379        H  0.20539762  0.04266724  0.19209063     0.18200
C380        C  0.24460421  0.18980025  0.13120316    -0.25700
C381        C  0.24799985  0.20448277  0.11123377     0.36300
C382        C  0.21853841  0.16578986  0.09644142    -0.19800
C383        C  0.18916026  0.11306694  0.10165127    -0.25000
C384        C  0.18260709  0.09884222  0.12170967     0.27700
H385        H  0.26622262  0.21956380  0.14263374     0.13400
N386        N  0.27799504  0.25882549  0.10600831    -0.82300
H387        H  0.16618619  0.08370753  0.09024794     0.18300
N388        N  0.14418372  0.04613161  0.12699129    -0.80900
H389        H  0.29761417  0.28243622  0.11850580     0.33900
H390        H  0.30622667  0.26391953  0.09608822     0.38400
H391        H  0.11516895  0.04722112  0.13458127     0.33900
H392        H  0.12629429  0.02280306  0.11426765     0.30600
H393        H  0.26324827  0.06802338  0.16048250     0.33900
H394        H  0.20151755  0.01989534  0.15526439     0.30600
H395        H  0.12817679  0.13947494  0.20984074     0.38400
H396        H  0.19214937  0.18368305  0.21473763     0.33900
C397        C  0.46338529  0.28512459  0.39771298    -0.19800
C398        C  0.41572604  0.28062653  0.39423928     0.36400
C399        C  0.39500145  0.27127678  0.37491389    -0.25800
C400        C  0.42384990  0.27196043  0.35888725     0.02800
C401        C  0.47221593  0.27761945  0.36235910     0.27600
C402        C  0.48926746  0.27938278  0.38192136    -0.24900
N403        N  0.39168094  0.29117372  0.41006704    -0.82300
H404        H  0.35818509  0.26723461  0.37207374     0.13400
C405        C  0.40847686  0.27813783  0.33884479     0.02800
N406        N  0.50633590  0.28793926  0.34621023    -0.80900
H407        H  0.96384228  0.25932023  0.38740262     0.18200
C408        C  0.41344800  0.32561908  0.33462480    -0.25700
C409        C  0.40597965  0.33683263  0.31533463     0.36300
C410        C  0.39230395  0.29958020  0.30004745    -0.19800
C411        C  0.38373651  0.25053353  0.30442804    -0.25000
C412        C  0.39175960  0.23952369  0.32383345     0.27700
H413        H  0.42445089  0.35463593  0.34628679     0.13400
N414        N  0.41124599  0.38573630  0.31137443    -0.82300
H415        H  0.37117823  0.22099416  0.29279058     0.18300
N416        N  0.38253610  0.18920858  0.32821831    -0.80900
H417        H  0.44827931  0.41586503  0.31634475     0.33900
H418        H  0.38394178  0.38759675  0.31983079     0.38400
H419        H  0.34358342  0.16112747  0.32463766     0.33900
H420        H  0.40488666  0.18282281  0.31852789     0.30600
H421        H  0.00508973  0.27704005  0.35301549     0.33900
H422        H  0.48749417  0.25602138  0.33643841     0.30600
H423        H  0.39208242  0.32493315  0.40666799     0.38400
H424        H  0.35329683  0.25981820  0.41132531     0.33900
C425        C  0.39454025  0.26422546  0.20912577    -0.19800
C426        C  0.35482934  0.22428652  0.19680946     0.36400
C427        C  0.36671862  0.21328986  0.17809959    -0.25800
C428        C  0.41832771  0.23824320  0.17206081     0.02800
C429        C  0.45852941  0.27121759  0.18585291     0.27600
C430        C  0.44641454  0.28560611  0.20385267    -0.24900
N431        N  0.30235653  0.19452411  0.20322566    -0.82300
H432        H  0.33533137  0.18594463  0.16808471     0.13400
C433        C  0.42892526  0.23571967  0.15061368     0.02800
N434        N  0.51148236  0.29048165  0.18141494    -0.80900
H435        H  0.47763325  0.31440281  0.21357850     0.18200
C436        C  0.41074516  0.25719401  0.13676780    -0.25700
C437        C  0.42402739  0.26193251  0.11660125     0.36300
C438        C  0.45273472  0.24115645  0.10976362    -0.19800
C439        C  0.46712289  0.21585090  0.12327035    -0.25000
C440        C  0.45881553  0.21600512  0.14367037     0.27700
H441        H  0.38880176  0.27340392  0.14198353     0.13400
N442        N  0.41199253  0.29121209  0.10343130    -0.82300
H443        H  0.48896970  0.19959453  0.11806572     0.18300
N444        N  0.48251428  0.19715714  0.15672227    -0.80900
H445        H  0.39402578  0.30711828  0.11110163     0.33900
H446        H  0.38495702  0.26493991  0.09281766     0.38400
H447        H  0.52281236  0.22318948  0.15631240     0.33900
H448        H  0.47192147  0.19628458  0.17139203     0.30600
H449        H  0.53674173  0.31692292  0.19240361     0.33900
H450        H  0.51908940  0.31002566  0.16808011     0.30600
H451        H  0.27930265  0.19691283  0.19229808     0.38400
H452        H  0.29144552  0.15547428  0.20395682     0.33900
C453        C  0.31954252  0.41313503  0.28792003    -0.19800
C454        C  0.35942061  0.45344750  0.30001576     0.36400
C455        C  0.34868252  0.46013541  0.31956312    -0.25800
C456        C  0.29820017  0.42931365  0.32710418     0.02800
C457        C  0.25644891  0.39823058  0.31335285     0.27600
C458        C  0.26786351  0.38997663  0.29396610    -0.24900
N459        N  0.41123218  0.48636489  0.29289111    -0.82300
H460        H  0.38052919  0.48879993  0.32910782     0.13400
C461        C  0.29134616  0.43063655  0.34917443     0.02800
N462        N  0.20306375  0.37235979  0.31921699    -0.80900
H463        H  0.23643527  0.36223878  0.28408953     0.18200
C464        C  0.25086719  0.43458669  0.35659391    -0.25700
C465        C  0.24873892  0.44445798  0.37674569     0.36300
C466        C  0.28792162  0.45127453  0.39002862    -0.19800
C467        C  0.32474572  0.44091114  0.38336787    -0.25000
C468        C  0.32688745  0.43053903  0.36308206     0.27700
H469        H  0.22197672  0.43264359  0.34665796     0.13400
N470        N  0.25188272  0.04346288  0.37618497    -0.82300
H471        H  0.35367488  0.44393355  0.39379820     0.18300
N472        N  0.36567015  0.42100031  0.35653765    -0.80900
H473        H  0.28722657  0.07299377  0.37060290     0.33900
H474        H  0.25021414  0.05117174  0.39117051     0.38400
H475        H  0.38904007  0.42306127  0.36848972     0.33900
H476        H  0.34609387  0.38256604  0.35097121     0.30600
H477        H  0.17765319  0.35073326  0.30736400     0.33900
H478        H  0.19655648  0.34578374  0.33035257     0.30600
H479        H  0.43685983  0.48360838  0.30248078     0.38400
H480        H  0.42093222  0.52511402  0.29359819     0.33900
C481        C  0.30096733  0.45110104  0.10226626    -0.19800
C482        C  0.26800831  0.44743276  0.11724004     0.36400
C483        C  0.27371701  0.43220794  0.13599928    -0.25800
C484        C  0.30907646  0.41714825  0.13938556     0.02800
C485        C  0.33842936  0.41565547  0.12381199     0.27600
C486        C  0.33422255  0.43310022  0.10513251    -0.24900
N487        N  0.23049698  0.46123240  0.11340295    -0.82300
H488        H  0.25152500  0.43323775  0.14809382     0.13400
C489        C  0.31502353  0.40381130  0.15950968     0.02800
N490        N  0.37367549  0.39870391  0.12730045    -0.80900
H491        H  0.35893117  0.43574959  0.09322052     0.18200
C492        C  0.29863842  0.35218126  0.16368086    -0.25700
C493        C  0.30201425  0.33840741  0.18305056     0.36300
C494        C  0.32204396  0.37687158  0.19824574    -0.19800
C495        C  0.33873369  0.42846265  0.19402338    -0.25000
C496        C  0.33496513  0.44207942  0.17470092     0.27700
H497        H  0.28371869  0.32269609  0.15192343     0.13400
N498        N  0.28763951  0.28608966  0.18706178    -0.82300
H499        H  0.35488568  0.45824100  0.20571065     0.18300
N500        N  0.35064764  0.49464430  0.17060229    -0.80900
H501        H  0.24845979  0.26089470  0.18300612     0.33900
H502        H  0.30950807  0.27760404  0.17786410     0.38400
H503        H  0.38873752  0.51921234  0.17608540     0.33900
H504        H  0.32687643  0.50238517  0.17884922     0.30600
H505        H  0.39224884  0.40004975  0.11420319     0.33900
H506        H  0.40272925  0.42539727  0.13729021     0.30600
H507        H  0.20514991  0.43612881  0.10212324     0.38400
H508        H  0.20752329  0.45299648  0.12582348     0.33900
C509        C  0.35317382  0.05921573  0.39625278    -0.19800
C510        C  0.37344696  0.11163733  0.39027380     0.36400
C511        C  0.39845086  0.12869095  0.37202760    -0.25800
C512        C  0.40568972  0.09567380  0.35976817     0.02800
C513        C  0.39198202  0.04620632  0.36689173     0.27600
C514        C  0.36565660  0.02841319  0.38493809    -0.24900
N515        N  0.36555902  0.14712675  0.40136381    -0.82300
H516        H  0.41010017  0.16725434  0.36695624     0.13400
C517        C  0.42532456  0.11230649  0.33922847     0.02800
N518        N  0.40399080  0.01387511  0.35555989    -0.80900
H519        H  0.35257326  0.98920879  0.38976666     0.18200
C520        C  0.47271050  0.15981048  0.33617037    -0.25700
C521        C  0.49078985  0.17683293  0.31678448     0.36300
C522        C  0.46280234  0.14343505  0.30029650    -0.19800
C523        C  0.41527917  0.09681875  0.30336542    -0.25000
C524        C  0.39558620  0.08219364  0.32248788     0.27700
H525        H  0.49510916  0.18402877  0.34890572     0.13400
N526        N  0.53700703  0.22781204  0.31386783    -0.82300
H527        H  0.39336941  0.07127225  0.29081941     0.18300
N528        N  0.34494225  0.03657771  0.32473700    -0.80900
H529        H  0.55605128  0.24438746  0.32746469     0.33900
H530        H  0.56332922  0.22408943  0.30561878     0.38400
H531        H  0.31167985  0.54949509  0.30964213     0.33900
H532        H  0.32818285  0.53164260  0.33060202     0.30600
H533        H  0.39210246  0.97910305  0.36299321     0.33900
H534        H  0.44449953  0.03391980  0.35470105     0.30600
H535        H  0.38738683  0.15740902  0.41457542     0.38400
H536        H  0.32618676  0.12881751  0.40458891     0.33900
C537        C  0.44277513  0.11841179  0.20657614    -0.19800
C538        C  0.39728910  0.11795610  0.20285234     0.36400
C539        C  0.37446347  0.10537586  0.18354542    -0.25800
C540        C  0.39505563  0.09008251  0.16820079     0.02800
C541        C  0.44173366  0.09230973  0.17222257     0.27600
C542        C  0.46394844  0.10484261  0.19130290    -0.24900
N543        N  0.37275410  0.12691324  0.21888823    -0.82300
H544        H  0.33908562  0.10472154  0.18089882     0.13400
C545        C  0.36833450  0.07151946  0.14815868     0.02800
N546        N  0.46912341  0.08600397  0.15656229    -0.80900
H547        H  0.49914829  0.10537079  0.19407593     0.18200
C548        C  0.34891111  0.09848192  0.13821533    -0.25700
C549        C  0.32557870  0.08255543  0.11907691     0.36300
C550        C  0.32208206  0.03933197  0.10948174    -0.19800
C551        C  0.34431317  0.01474225  0.11890395    -0.25000
C552        C  0.36366290  0.02753299  0.13846240     0.27700
H553        H  0.35133270  0.13174308  0.14534532     0.13400
N554        N  0.30527332  0.11009612  0.10954860    -0.82300
H555        H  0.41144440  0.54019388  0.10680388     0.18300
N556        N  0.37787424  0.99522597  0.14853157    -0.80900
H557        H  0.33573020  0.14921815  0.10821283     0.33900
H558        H  0.27792786  0.10922776  0.11888739     0.38400
H559        H  0.43314155  0.52883120  0.14292597     0.33900
H560        H  0.35274922  0.97723299  0.16029430     0.30600
H561        H  0.50562352  0.12066360  0.15560011     0.33900
H562        H  0.47442942  0.05590041  0.16046748     0.30600
H563        H  0.37131432  0.15959915  0.21565232     0.38400
H564        H  0.33457796  0.09447951  0.21971874     0.33900
C565        C  0.12241254  0.20511518  0.29624976    -0.19800
C566        C  0.09476485  0.17163888  0.31212863     0.36400
C567        C  0.11653199  0.18451954  0.33157109    -0.25800
C568        C  0.16657927  0.22892677  0.33594078     0.02800
C569        C  0.19735933  0.25664234  0.31927787     0.27600
C570        C  0.17404267  0.24635907  0.29999044    -0.24900
N571        N  0.04409766  0.12493832  0.30863323    -0.82300
H572        H  0.09418867  0.15841053  0.34338468     0.13400
C573        C  0.18507247  0.24336607  0.35773303     0.02800
N574        N  0.25246722  0.29318514  0.32153697    -0.80900
H575        H  0.19658306  0.27016399  0.28768735     0.18200
C576        C  0.23756427  0.26475894  0.36362366    -0.25700
C577        C  0.25419473  0.27544344  0.38370274     0.36300
C578        C  0.21754609  0.25684262  0.39878960    -0.19800
C579        C  0.16623354  0.24024554  0.39347539    -0.25000
C580        C  0.14990452  0.23466535  0.37324120     0.27700
H581        H  0.26623929  0.27066319  0.35307520     0.13400
N582        N  0.30847328  0.30408545  0.38895469    -0.82300
H583        H  0.13816833  0.22888510  0.40510291     0.18300
N584        N  0.09710223  0.21826192  0.36852960    -0.80900
H585        H  0.33043287  0.32006162  0.37624648     0.33900
H586        H  0.31636124  0.33644503  0.39760169     0.38400
H587        H  0.07571348  0.21087098  0.38140712     0.33900
H588        H  0.09806443  0.24913893  0.36128839     0.30600
H589        H  0.26971130  0.30826740  0.30790857     0.33900
H590        H  0.25925709  0.32413843  0.33069047     0.30600
H591        H  0.01892149  0.13603661  0.30378416     0.38400
H592        H  0.02866541  0.10504105  0.32184418     0.33900
C593        C  0.14973972  0.20320911  0.09373772    -0.19800
C594        C  0.11546830  0.15670002  0.10361523     0.36400
C595        C  0.10946014  0.15827806  0.12418294    -0.25800
C596        C  0.12770915  0.20565709  0.13490631     0.02800
C597        C  0.15773058  0.25283897  0.12391467     0.27600
C598        C  0.16936545  0.25088412  0.10385151    -0.24900
N599        N  0.09034257  0.10744523  0.09294567    -0.82300
H600        H  0.09299370  0.12157627  0.13164500     0.13400
C601        C  0.11547587  0.20439175  0.15706421     0.02800
N602        N  0.17886135  0.30344850  0.13284491    -0.80900
H603        H  0.19611190  0.28711299  0.09641457     0.18200
C604        C  0.14948691  0.24673813  0.17015475    -0.25700
C605        C  0.13904216  0.24749928  0.19052828     0.36300
C606        C  0.09477222  0.20387342  0.19869548    -0.19800
C607        C  0.06174988  0.16109410  0.18617282    -0.25000
C608        C  0.07088861  0.16044935  0.16581143     0.27700
H609        H  0.18606894  0.27876846  0.16503060     0.13400
N610        N  0.17429030  0.29166163  0.20306162    -0.82300
H611        H  0.02729418  0.12761134  0.19231954     0.18300
N612        N  0.03497216  0.11399876  0.15445495    -0.80900
H613        H  0.20460446  0.32104715  0.19481285     0.33900
H614        H  0.19115312  0.27909650  0.21334201     0.38400
H615        H  0.00558123  0.08529247  0.16321705     0.33900
H616        H  0.01764449  0.12359790  0.14330919     0.30600
H617        H  0.21922719  0.32284116  0.13219890     0.33900
H618        H  0.16815936  0.32453483  0.12402659     0.30600
H619        H  0.06553845  0.10795099  0.08219363     0.38400
H620        H  0.06679267  0.07647902  0.10236003     0.33900
C621        C  0.38079776  0.31811981  0.79633016    -0.19800
C622        C  0.40204329  0.35785945  0.81113404     0.36400
C623        C  0.39555233  0.34385897  0.83107763    -0.25800
C624        C  0.36643497  0.29138331  0.83680547     0.02800
C625        C  0.34116380  0.25195488  0.82186039     0.27600
C626        C  0.35002871  0.26567084  0.80181356    -0.24900
N627        N  0.43310989  0.41221057  0.80596023    -0.82300
H628        H  0.41375452  0.37431723  0.84229024     0.13400
C629        C  0.36001956  0.28011263  0.85847156     0.02800
N630        N  0.30509692  0.19848937  0.82685745    -0.80900
H631        H  0.33346164  0.23525113  0.79037501     0.18200
C632        C  0.31034152  0.24441016  0.86583446    -0.25700
C633        C  0.30089828  0.24223182  0.88602401     0.36300
C634        C  0.34084828  0.27804055  0.89900921    -0.19800
C635        C  0.39173988  0.30883056  0.89244689    -0.25000
C636        C  0.40197689  0.30962329  0.87222260     0.27700
H637        H  0.27721462  0.22094994  0.85606316     0.13400
N638        N  0.24953034  0.20691165  0.89310351    -0.82300
H639        H  0.42256797  0.33550419  0.90278672     0.18300
N640        N  0.45431349  0.34225824  0.86551975    -0.80900
H641        H  0.23959274  0.16882255  0.89000468     0.33900
H642        H  0.22375942  0.21228564  0.88474268     0.38400
H643        H  0.48025995  0.36016308  0.87758826     0.33900
H644        H  0.46367677  0.31760684  0.85869314     0.30600
H645        H  0.29781110  0.17443688  0.81452311     0.33900
H646        H  0.32227728  0.18831065  0.83781131     0.30600
H647        H  0.40835339  0.42167618  0.79911742     0.38400
H648        H  0.44856623  0.43611645  0.81868160     0.33900
C649        C  0.14984946  0.44788559  0.89643916    -0.19800
C650        C  0.14872439  0.41002974  0.88399308     0.36400
C651        C  0.12343874  0.39830828  0.86515902    -0.25800
C652        C  0.09260630  0.41810456  0.85922285     0.02800
C653        C  0.08615907  0.44865982  0.87375303     0.27600
C654        C  0.11719771  0.46571462  0.89141529    -0.24900
N655        N  0.17479396  0.38476932  0.89036643    -0.82300
H656        H  0.13045255  0.37568765  0.85482482     0.13400
C657        C  0.07101312  0.40901567  0.83781274     0.02800
N658        N  0.04621993  0.45996291  0.87200150    -0.80900
H659        H  0.12000014  0.01108783  0.90348872     0.18200
C660        C  0.06764089  0.44785288  0.82766455    -0.25700
C661        C  0.04918222  0.44121171  0.80768883     0.36300
C662        C  0.03851991  0.39675768  0.79643532    -0.19800
C663        C  0.04142509  0.35793210  0.80654792    -0.25000
C664        C  0.05477154  0.36238524  0.82688136     0.27700
H665        H  0.07750267  0.48311551  0.83546041     0.13400
N666        N  0.03744452  0.47741518  0.79951339    -0.82300
H667        H  0.03003355  0.32152256  0.79895828     0.18300
N668        N  0.04849467  0.31745868  0.83637462    -0.80900
H669        H  0.04642788  0.50747317  0.80968708     0.33900
H670        H  0.06016474  0.49440084  0.78717501     0.38400
H671        H  0.00923346  0.28750396  0.83504147     0.33900
H672        H  0.06905714  0.30558287  0.82805956     0.30600
H673        H  0.02943694  0.96928033  0.86094830     0.33900
H674        H  0.06375951  0.50004853  0.86967764     0.30600
H675        H  0.14676114  0.34593203  0.89339055     0.38400
H676        H  0.19704394  0.38463492  0.87879699     0.33900
C677        C  0.03202099  0.38624333  0.69653986    -0.19800
C678        C  0.05065994  0.43412523  0.68667316     0.36400
C679        C  0.06459267  0.43854955  0.66655126    -0.25800
C680        C  0.05851695  0.39577906  0.65570694     0.02800
C681        C  0.03566550  0.34706075  0.66512447     0.27600
C682        C  0.02442381  0.34321224  0.68541720    -0.24900
N683        N  0.05531515  0.47809041  0.69693772    -0.82300
H684        H  0.08137452  0.47593739  0.65947671     0.13400
C685        C  0.08037923  0.40334728  0.63531027     0.02800
N686        N  0.02223565  0.30104141  0.65384861    -0.80900
H687        H  0.00721399  0.30536001  0.69233761     0.18200
C688        C  0.11285631  0.38499013  0.63106162    -0.25700
C689        C  0.13957651  0.39650359  0.61319680     0.36300
C690        C  0.13584518  0.42916855  0.59941562    -0.19800
C691        C  0.09932490  0.44303812  0.60261832    -0.25000
C692        C  0.07139265  0.43014865  0.62035717     0.27700
H693        H  0.11851413  0.36267100  0.64201565     0.13400
N694        N  0.17049360  0.37498652  0.60949204    -0.82300
H695        H  0.09483523  0.46676370  0.59182175     0.18300
N696        N  0.03392571  0.44414349  0.62307467    -0.80900
H697        H  0.20861086  0.40545001  0.60688481     0.33900
H698        H  0.15583905  0.35174350  0.59658519     0.38400
H699        H  0.05239318  0.48453072  0.62122432     0.33900
H700        H  0.00544762  0.42561937  0.61181026     0.30600
H701        H  0.00376720  0.26820811  0.66288955     0.33900
H702        H  0.99485501  0.29546329  0.64294057     0.30600
H703        H  0.08036574  0.48705128  0.70911070     0.38400
H704        H  0.07349749  0.51095962  0.68793109     0.33900
C705        C  0.37809060  0.30711621  0.70047950    -0.19800
C706        C  0.32978155  0.29942130  0.69511840     0.36400
C707        C  0.31143446  0.28599798  0.67527367    -0.25800
C708        C  0.34145885  0.28119047  0.66070727     0.02800
C709        C  0.38878173  0.28681578  0.66661499     0.27600
C710        C  0.40654957  0.29979368  0.68630094    -0.24900
N711        N  0.29724702  0.30073204  0.70986188    -0.82300
H712        H  0.27425759  0.28035374  0.67121015     0.13400
C713        C  0.32478273  0.27116650  0.63926331     0.02800
N714        N  0.41838965  0.27857441  0.65250815    -0.80900
H715        H  0.44340250  0.30491338  0.69058725     0.18200
C716        C  0.36131024  0.30144513  0.62474743    -0.25700
C717        C  0.34883695  0.29161895  0.60448769     0.36300
C718        C  0.29764172  0.25299842  0.59822380    -0.19800
C719        C  0.26166325  0.22094445  0.61255258    -0.25000
C720        C  0.27472868  0.23006218  0.63296627     0.27700
H721        H  0.40000154  0.33348872  0.62917200     0.13400
N722        N  0.38857233  0.32231559  0.59050310    -0.82300
H723        H  0.22233117  0.19075131  0.60798159     0.18300
N724        N  0.23678978  0.19802112  0.64722720    -0.80900
H725        H  0.37690900  0.34232161  0.58154594     0.33900
H726        H  0.39248987  0.29665498  0.58140083     0.38400
H727        H  0.20459803  0.20101558  0.64492399     0.33900
H728        H  0.22518866  0.15939127  0.64429037     0.30600
H729        H  0.45110953  0.28217395  0.65934908     0.33900
H730        H  0.39443418  0.23997875  0.64732540     0.30600
H731        H  0.31781175  0.33696178  0.71724531     0.38400
H732        H  0.28922478  0.27213435  0.72033471     0.33900
C733        C  0.10693015  0.16597992  0.79869818    -0.19800
C734        C  0.06220458  0.16748971  0.80160829     0.36400
C735        C  0.04979917  0.17441791  0.82112088    -0.25800
C736        C  0.07971047  0.17680143  0.83776874     0.02800
C737        C  0.12568620  0.17796375  0.83459280     0.27600
C738        C  0.13945568  0.17415703  0.81513047    -0.24900
N739        N  0.03152477  0.16499364  0.78475292    -0.82300
H740        H  0.01695415  0.17814991  0.82336317     0.13400
C741        C  0.06605717  0.18357827  0.85834086     0.02800
N742        N  0.15855664  0.18358388  0.85117519    -0.80900
H743        H  0.17574962  0.17685238  0.81273415     0.18200
C744        C  0.04322555  0.14101624  0.87132415    -0.25700
C745        C  0.02986705  0.14613737  0.89079186     0.36300
C746        C  0.03830188  0.19480046  0.89734874    -0.19800
C747        C  0.06335242  0.23753016  0.88468680    -0.25000
C748        C  0.07867828  0.23296613  0.86562727     0.27700
H749        H  0.03566196  0.10345423  0.86628608     0.13400
N750        N  0.50328344  0.09826007  0.90373001    -0.82300
H751        H  0.06956584  0.27452563  0.88951911     0.18300
N752        N  0.10768385  0.27951472  0.85423016    -0.80900
H753        H  0.46819924  0.06867201  0.89712099     0.33900
H754        H  0.49486391  0.10578143  0.91783366     0.38400
H755        H  0.14143641  0.30548211  0.86232811     0.33900
H756        H  0.12002856  0.27272961  0.84086729     0.30600
H757        H  0.19105669  0.18407341  0.84625265     0.33900
H758        H  0.17251129  0.22014083  0.85782046     0.30600
H759        H  0.01378474  0.12746374  0.77840198     0.38400
H760        H  0.00184703  0.16995906  0.78924776     0.33900
C761        C  0.24849183  0.03052187  0.89687386    -0.19800
C762        C  0.26921591  0.08340285  0.89191616     0.36400
C763        C  0.27406814  0.09698387  0.87194682    -0.25800
C764        C  0.25348178  0.05801451  0.85701869     0.02800
C765        C  0.23627096  0.00620205  0.86186558     0.27600
C766        C  0.23915450  0.99444639  0.88169804    -0.24900
N767        N  0.28169450  0.12316136  0.90656159    -0.82300
H768        H  0.28819075  0.13711353  0.86817055     0.13400
C769        C  0.23985362  0.06946325  0.83753599     0.02800
N770        N  0.21178072  0.96512922  0.84701538    -0.80900
H771        H  0.22788976  0.95523417  0.88549763     0.18200
C772        C  0.26211766  0.06485389  0.82021839    -0.25700
C773        C  0.24809229  0.07456791  0.80151110     0.36300
C774        C  0.21100395  0.08825240  0.80046616    -0.19800
C775        C  0.18645725  0.08922408  0.81758281    -0.25000
C776        C  0.20067942  0.08047228  0.83615746     0.27700
H777        H  0.29094719  0.05471599  0.82145333     0.13400
N778        N  0.27134067  0.07117416  0.78371103    -0.82300
H779        H  0.15530229  0.09597880  0.81642908     0.18300
N780        N  0.17397276  0.08062848  0.85350609    -0.80900
H781        H  0.29640040  0.05885215  0.78717349     0.33900
H782        H  0.24167323  0.04153170  0.77469817     0.38400
H783        H  0.14352466  0.08530083  0.84949103     0.33900
H784        H  0.19991128  0.11380269  0.86202318     0.30600
H785        H  0.19846304  0.92880167  0.85344045     0.33900
H786        H  0.17850466  0.96326930  0.84163135     0.30600
H787        H  0.24935571  0.11079840  0.91540981     0.38400
H788        H  0.31286858  0.12921394  0.91537960     0.33900
C789        C  0.23021144  0.09008406  0.71103609    -0.19800
C790        C  0.26949993  0.13150732  0.69986408     0.36400
C791        C  0.27854214  0.12250779  0.68040994    -0.25800
C792        C  0.25094355  0.07209170  0.67228944     0.02800
C793        C  0.21942725  0.02933182  0.68466421     0.27600
C794        C  0.20784421  0.03867108  0.70378796    -0.24900
N795        N  0.29604901  0.18394297  0.70724105    -0.82300
H796        H  0.30414930  0.15550154  0.67118182     0.13400
C797        C  0.24705494  0.06557508  0.65042914     0.02800
N798        N  0.19699610  0.97684334  0.67730293    -0.80900
H799        H  0.17932585  0.00607685  0.71250775     0.18200
C800        C  0.28731655  0.06807922  0.63984011    -0.25700
C801        C  0.27993186  0.05332931  0.61967222     0.36300
C802        C  0.23332540  0.03969019  0.60971145    -0.19800
C803        C  0.19652597  0.04510872  0.61965394    -0.25000
C804        C  0.20251198  0.05704730  0.64006094     0.27700
H805        H  0.32342557  0.07936107  0.64742147     0.13400
N806        N  0.31872184  0.05011114  0.60940858    -0.82300
H807        H  0.16208490  0.03777751  0.61166311     0.18300
N808        N  0.16446035  0.06227288  0.65019199    -0.80900
H809        H  0.32651538  0.02527550  0.61715281     0.33900
H810        H  0.35217913  0.08758832  0.60948609     0.38400
H811        H  0.13279568  0.05200433  0.64070390     0.33900
H812        H  0.15036728  0.03604739  0.66183217     0.30600
H813        H  0.17533466  0.95006043  0.68833023     0.33900
H814        H  0.22760439  0.97190120  0.67439880     0.30600
H815        H  0.28435054  0.20297491  0.69787142     0.38400
H816        H  0.33602386  0.20032369  0.70601063     0.33900
C817        C  0.11750492  0.15880042  0.70132229    -0.19800
C818        C  0.14287796  0.20795810  0.69212295     0.36400
C819        C  0.13647212  0.21097120  0.67155480    -0.25800
C820        C  0.10417625  0.16586575  0.65970740     0.02800
C821        C  0.07757349  0.11683231  0.66902753     0.27600
C822        C  0.08385054  0.11393326  0.68958490    -0.24900
N823        N  0.17407273  0.25520123  0.70358550    -0.82300
H824        H  0.15712742  0.24913267  0.66488970     0.13400
C825        C  0.09486622  0.17077175  0.63812101     0.02800
N826        N  0.04308886  0.06981480  0.65780207    -0.80900
H827        H  0.06231624  0.07595162  0.69635570     0.18200
C828        C  0.09718984  0.13852511  0.62354406    -0.25700
C829        C  0.08132576  0.13783551  0.60372357     0.36300
C830        C  0.06214986  0.16945210  0.59834133    -0.19800
C831        C  0.06507690  0.20531898  0.61234697    -0.25000
C832        C  0.08066505  0.20585559  0.63205767     0.27700
H833        H  0.11069528  0.11327968  0.62762508     0.13400
N834        N  0.08608227  0.10580952  0.58932736    -0.82300
H835        H  0.05211323  0.23105483  0.60821993     0.18300
N836        N  0.07862143  0.23992429  0.64616649    -0.80900
H837        H  0.55549480  0.06468390  0.59535277     0.33900
H838        H  0.57420512  0.10860584  0.57707150     0.38400
H839        H  0.10208061  0.27818577  0.64112485     0.33900
H840        H  0.04028891  0.23008972  0.64626177     0.30600
H841        H  0.05646968  0.04472424  0.65935055     0.33900
H842        H  0.00626841  0.05146405  0.66403248     0.30600
H843        H  0.21028733  0.27670485  0.69698275     0.38400
H844        H  0.15701263  0.27711783  0.70231251     0.33900
C845        C  0.40813318  0.06659883  0.79743773    -0.19800
C846        C  0.42737738  0.05114766  0.81337021     0.36400
C847        C  0.42970254  0.07055989  0.83263105    -0.25800
C848        C  0.41421106  0.10585212  0.83626334     0.02800
C849        C  0.40135088  0.12584650  0.81978940     0.27600
C850        C  0.39847425  0.10604558  0.80066431    -0.24900
N851        N  0.44261954  0.01446993  0.81014534    -0.82300
H852        H  0.44329591  0.05772143  0.84489205     0.13400
C853        C  0.41231867  0.12168278  0.85722167     0.02800
N854        N  0.38787596  0.16377240  0.82263209    -0.80900
H855        H  0.38647262  0.11999609  0.78825256     0.18200
C856        C  0.43254832  0.17459570  0.86204255    -0.25700
C857        C  0.43563847  0.19126997  0.88167693     0.36300
C858        C  0.42414061  0.15568929  0.89715345    -0.19800
C859        C  0.39824382  0.10213055  0.89253870    -0.25000
C860        C  0.39119696  0.08455643  0.87264304     0.27700
H861        H  0.44872990  0.20411971  0.85073347     0.13400
N862        N  0.96186125  0.25364826  0.88469468    -0.82300
H863        H  0.38778267  0.07454059  0.90445891     0.18300
N864        N  0.36510475  0.02949261  0.86816481    -0.80900
H865        H  0.99862685  0.27618954  0.87852217     0.33900
H866        H  0.96587996  0.26217697  0.89990626     0.38400
H867        H  0.35097511  0.00764342  0.88109308     0.33900
H868        H  0.33276860  0.01893671  0.85905121     0.30600
H869        H  0.37674483  0.17248749  0.80920272     0.33900
H870        H  0.35544491  0.14551227  0.83154723     0.30600
H871        H  0.43746381  0.51271212  0.81466837     0.38400
H872        H  0.47576596  0.03304785  0.80144131     0.33900
C873        C  0.30520100  0.40735542  0.79547910    -0.19800
C874        C  0.31280980  0.44304382  0.81070641     0.36400
C875        C  0.31180770  0.42978112  0.83051487    -0.25800
C876        C  0.29651574  0.37940481  0.83585672     0.02800
C877        C  0.28039351  0.34067279  0.82066514     0.27600
C878        C  0.28834878  0.35582245  0.80050694    -0.24900
N879        N  0.32157119  0.49307974  0.80604249    -0.82300
H880        H  0.32148190  0.45860046  0.84204006     0.13400
C881        C  0.29855630  0.36937288  0.85740428     0.02800
N882        N  0.25404092  0.28637822  0.82558439    -0.80900
H883        H  0.27966018  0.32733128  0.78882618     0.18200
C884        C  0.25286886  0.33223680  0.86690425    -0.25700
C885        C  0.25333700  0.32239645  0.88728721     0.36300
C886        C  0.30138660  0.34576302  0.89766355    -0.19800
C887        C  0.34662224  0.38531555  0.88863839    -0.25000
C888        C  0.34514230  0.39957366  0.86895111     0.27700
H889        H  0.21678577  0.31215618  0.85842193     0.13400
N890        N  0.20547295  0.29042741  0.89761375    -0.82300
H891        H  0.38309742  0.40512029  0.89704661     0.18300
N892        N  0.38982738  0.44586018  0.86111038    -0.80900
H893        H  0.17375880  0.27442234  0.88768490     0.33900
H894        H  0.20504339  0.25908045  0.90410961     0.38400
H895        H  0.42124403  0.46210489  0.87125199     0.33900
H896        H  0.40149283  0.43620717  0.84826237     0.30600
H897        H  0.24948751  0.26393316  0.81296949     0.33900
H898        H  0.27727089  0.28182598  0.83566741     0.30600
H899        H  0.33048132  0.51587570  0.81894689     0.38400
H900        H  0.28660569  0.48668468  0.80022273     0.33900
C901        C  0.45426770  0.12066260  0.60121872    -0.19800
C902        C  0.44485021  0.07352679  0.60926724     0.36400
C903        C  0.43601636  0.06523440  0.62953812    -0.25800
C904        C  0.43536291  0.10223267  0.64188748     0.02800
C905        C  0.44273380  0.14819944  0.63373477     0.27600
C906        C  0.45186163  0.15695833  0.61337769    -0.24900
N907        N  0.44396812  0.03346074  0.59741612    -0.82300
H908        H  0.43069128  0.02994532  0.63582943     0.13400
C909        C  0.42557213  0.09100617  0.66319821     0.02800
N910        N  0.44220037  0.18628098  0.64621814    -0.80900
H911        H  0.45981932  0.19337691  0.60711561     0.18200
C912        C  0.46133143  0.12602749  0.67784335    -0.25700
C913        C  0.45463649  0.11233144  0.69806979     0.36300
C914        C  0.41197390  0.06304771  0.70322865    -0.19800
C915        C  0.37491675  0.03058866  0.68877091    -0.25000
C916        C  0.38149972  0.04348119  0.66893977     0.27700
H917        H  0.49494192  0.16312955  0.67345463     0.13400
N918        N  0.49005965  0.14793439  0.71317517    -0.82300
H919        H  0.34000665  0.99448498  0.69286953     0.18300
N920        N  0.34331221  0.00765858  0.65465988    -0.80900
H921        H  0.51876604  0.18296935  0.70679867     0.33900
H922        H  0.46907894  0.15744796  0.72243541     0.38400
H923        H  0.34174973  0.97263204  0.65566534     0.33900
H924        H  0.30697360  0.99962504  0.65885617     0.30600
H925        H  0.45102111  0.21885479  0.63785651     0.33900
H926        H  0.40438880  0.16942988  0.65136478     0.30600
H927        H  0.94928313  0.03851982  0.57994055     0.38400
H928        H  0.47203933  0.02724087  0.60324778     0.33900
C929        C  0.26445403  0.32452522  0.59414394    -0.19800
C930        C  0.22281430  0.29958998  0.60719630     0.36400
C931        C  0.22927500  0.31674927  0.62701908    -0.25800
C932        C  0.27616018  0.36145513  0.63402203     0.02800
C933        C  0.31557454  0.39027544  0.61993864     0.27600
C934        C  0.30953525  0.37138599  0.60031105    -0.24900
N935        N  0.17370926  0.25593803  0.60053252    -0.82300
H936        H  0.19787782  0.29367288  0.63698439     0.13400
C937        C  0.28432730  0.37608928  0.65590498     0.02800
N938        N  0.36219711  0.43874407  0.62536043    -0.80900
H939        H  0.34133822  0.39216242  0.59016973     0.18200
C940        C  0.33255664  0.39274113  0.66508412    -0.25700
C941        C  0.34349595  0.40944083  0.68505309     0.36300
C942        C  0.30437998  0.40684391  0.69709951    -0.19800
C943        C  0.25539461  0.38842538  0.68819152    -0.25000
C944        C  0.24523058  0.37383095  0.66781288     0.27700
H945        H  0.36285771  0.39352741  0.65666122     0.13400
N946        N  0.39584089  0.43250939  0.69251333    -0.82300
H947        H  0.22549525  0.38758918  0.69693064     0.18300
N948        N  0.19625523  0.35969737  0.65896274    -0.80900
H949        H  0.40710499  0.40595641  0.69027950     0.33900
H950        H  0.42020220  0.46538028  0.68403096     0.38400
H951        H  0.17131789  0.35875292  0.66964575     0.33900
H952        H  0.20401988  0.38943713  0.64910634     0.30600
H953        H  0.39394664  0.43557042  0.62245526     0.33900
H954        H  0.36445244  0.46761109  0.61624997     0.30600
H955        H  0.16036639  0.26839575  0.58879067     0.38400
H956        H  0.17860466  0.22670071  0.59502076     0.33900
O957        O  0.33070569  0.78156297  0.98378290    -0.80900
O958        O  0.32895765  0.61870074  0.03802948    -0.65500
O959        O  0.36379365  0.72195808  0.99887067    -1.12200
C960        C  0.28395473  0.55860449  0.96464021     1.06000
O961        O  0.32701195  0.55680432  0.01739158    -0.78800
O962        O  0.42056368  0.64759196  0.97677866    -0.66300
Ni963      Ni  0.37220494  0.78264425  0.00659992     1.34900
C964        C  0.42568144  0.68474627  0.96617728     0.84800
O965        O  0.42006658  0.70859031  0.02436192    -0.79300
O966        O  0.41866636  0.78272740  0.02838890    -0.89600
C967        C  0.32009850  0.57188722  0.03427001     0.84300
O968        O  0.31014071  0.75321990  0.02297569    -0.67800
O969        O  0.31554249  0.55369921  0.97621784    -0.87100
C970        C  0.27279550  0.70599556  0.02614385     0.85200
C971        C  0.43963380  0.75513610  0.03201196     1.06700
H972        H  0.29501976  0.60277615  0.00109905     0.38500
O973        O  0.33077574  0.63075718  0.99914585    -1.09700
O974        O  0.38944027  0.69392212  0.96556708    -0.66400
Ni975      Ni  0.32463251  0.66841932  0.97990736     1.26300
O976        O  0.27750449  0.66683774  0.02146452    -0.66600
O977        O  0.28585634  0.60305028  0.96314989    -0.78900
C978        C  0.31451449  0.75532031  0.96718476     0.84600
O979        O  0.31306442  0.71253618  0.96344425    -0.66100
Ni980      Ni  0.36945677  0.60072721  0.99633118     1.27400
Ni981      Ni  0.34722477  0.67788044  0.02061336     1.26100
H982        H  0.39904917  0.73479660  0.99529708     0.39100
O983        O  0.29310441  0.54300552  0.48064507    -0.80900
O984        O  0.27965227  0.67974613  0.52031264    -0.65500
O985        O  0.31948060  0.62520998  0.50165795    -1.12200
C986        C  0.44187324  0.77673349  0.46781579     1.06000
O987        O  0.32345579  0.76737530  0.51666568    -0.78800
O988        O  0.33030439  0.76571079  0.47686192    -0.66300
Ni989      Ni  0.34294092  0.57779226  0.50160057     1.34900
C990        C  0.29696708  0.72170510  0.46883412     0.84800
O991        O  0.29720866  0.60706053  0.54045497    -0.79300
O992        O  0.29416442  0.54068378  0.52267351    -0.89600
C993        C  0.28525517  0.72493380  0.52355233     0.84300
O994        O  0.40147724  0.60910907  0.52034143    -0.67800
O995        O  0.43707072  0.80372799  0.48136856    -0.87100
C996        C  0.42464662  0.65128459  0.53040712     0.85200
C997        C  0.28076810  0.55725790  0.53761293     1.06700
H998        H  0.41323499  0.73466030  0.50645917     0.38500
O999        O  0.37710757  0.72187230  0.50365530    -1.09700
O1000       O  0.29941783  0.68087543  0.47207193    -0.66400
Ni1001     Ni  0.35757723  0.67354584  0.48203951     1.26300
O1002       O  0.40409657  0.67790362  0.53197328    -0.66600
O1003       O  0.40723185  0.72752500  0.46443282    -0.78900
C1004       C  0.30610002  0.56397520  0.46363296     0.84600
O1005       O  0.33428531  0.61528623  0.46203769    -0.66100
Ni1006     Ni  0.37926239  0.78435096  0.49889607     1.27400
Ni1007     Ni  0.33871795  0.67107106  0.52401396     1.26100
H1008       H  0.28246486  0.60753009  0.49888221     0.39100
O1009       O  0.35188321  0.54682106  0.76913536    -0.74400
O1010       O  0.28939310  0.93565374  0.72469652    -0.74400
O1011       O  0.27572606  0.92729448  0.76493961    -0.74500
O1012       O  0.34857458  0.55175032  0.72957172    -0.74500
O1013       O  0.41847615  0.54617148  0.72790131    -0.74500
O1014       O  0.33920649  0.91239420  0.76934719    -0.74400
O1015       O  0.35023088  0.91687660  0.72858578    -0.74400
O1016       O  0.42293508  0.54366998  0.76802255    -0.74500
Ni1017     Ni  0.31568363  0.98293132  0.74736683     1.25400
Ni1018     Ni  0.38277764  0.96515860  0.75029653     1.25400
C1019       C  0.39730436  0.56099951  0.77586990     0.87800
C1020       C  0.31343444  0.91446589  0.71830181     0.87700
C1021       C  0.29551950  0.90559047  0.77436928     0.87700
C1022       C  0.39142480  0.56456225  0.72175664     0.87900
O1023       O  0.14483373  0.55356880  0.73268136    -0.74400
O1024       O  0.07981662  0.59571157  0.77033647    -0.74400
O1025       O  0.08501216  0.59329815  0.72936423    -0.74500
O1026       O  0.13819676  0.55422786  0.77260100    -0.74500
O1027       O  0.20935502  0.63485278  0.77444226    -0.74500
O1028       O  0.15670960  0.67354394  0.73010405    -0.74400
O1029       O  0.15119539  0.67645546  0.77114095    -0.74400
O1030       O  0.21613385  0.63380076  0.73438528    -0.74500
Ni1031     Ni  0.10923586  0.57150271  0.75120085     1.25400
Ni1032     Ni  0.18571190  0.65769416  0.75256677     1.25400
C1033       C  0.19091478  0.58738236  0.72691691     0.87800
C1034       C  0.10670542  0.64215364  0.77796579     0.87700
C1035       C  0.11383778  0.63816210  0.72148075     0.87700
C1036       C  0.18161372  0.58796376  0.78083922     0.87900
O1037       O  0.00444023  0.91512119  0.77154983    -0.74400
O1038       O  0.41606773  0.85798980  0.72470009    -0.74400
O1039       O  0.40193642  0.85759226  0.76484556    -0.74500
O1040       O  0.01520668  0.91875374  0.73030813    -0.74500
O1041       O  0.01863644  0.84740541  0.73172703    -0.74500
O1042       O  0.40690075  0.78713169  0.76758951    -0.74400
O1043       O  0.42164835  0.78780206  0.72737817    -0.74400
O1044       O  0.00642316  0.84284884  0.77257949    -0.74500
Ni1045     Ni  0.45998012  0.89140490  0.74782914     1.25400
Ni1046     Ni  0.46542112  0.81605794  0.75046934     1.25400
C1047       C  0.01555482  0.88532585  0.78080580     0.87800
C1048       C  0.40792580  0.81467240  0.71770169     0.87700
C1049       C  0.38863983  0.81447910  0.77320129     0.87700
C1050       C  0.03121850  0.89053781  0.72338425     0.87900
C1051       C  0.46551061  0.66024308  0.54587880     0.02300
C1052       C  0.02313214  0.68154841  0.54459937     0.02300
C1053       C  0.05079928  0.67942846  0.56120521    -0.18200
C1054       C  0.02678494  0.65879468  0.57907705     0.02300
C1055       C  0.46977012  0.64348427  0.58116380     0.02300
C1056       C  0.44200725  0.64173494  0.56429721    -0.18200
H1057       H  0.40063267  0.62565955  0.56575193     0.04300
H1058       H  0.09252178  0.69658838  0.56059672     0.04300
C1059       C  0.20981475  0.96081569  0.55308758     0.02300
C1060       C  0.24567248  0.51728737  0.55305660     0.02300
C1061       C  0.25010362  0.53905534  0.57221166    -0.18200
C1062       C  0.21706321  0.50965308  0.58758727     0.02300
C1063       C  0.18051908  0.96104635  0.58715821     0.02300
C1064       C  0.17662290  0.93495888  0.56931399    -0.18200
H1065       H  0.14676014  0.89354486  0.56820742     0.04300
H1066       H  0.28007612  0.57970188  0.57543502     0.04300
C1067       C  0.30146473  0.77730927  0.94999489     0.02300
C1068       C  0.27707611  0.80680006  0.95035606     0.02300
C1069       C  0.26870958  0.82429771  0.93206181    -0.18200
C1070       C  0.28085482  0.81151501  0.91397725     0.02300
C1071       C  0.30345711  0.78171454  0.91374807     0.02300
C1072       C  0.31479085  0.76645492  0.93143103    -0.18200
H1073       H  0.33394975  0.74505802  0.93047779     0.04300
H1074       H  0.25146682  0.84757935  0.93171103     0.04300
C1075       C  0.23803523  0.76577866  0.54104968     0.02300
C1076       C  0.26041201  0.73367723  0.54095701     0.02300
C1077       C  0.28165180  0.72865867  0.55902639    -0.18200
C1078       C  0.28563321  0.75679051  0.57621793     0.02300
C1079       C  0.26420367  0.78778870  0.57625155     0.02300
C1080       C  0.24059289  0.79166439  0.55898924    -0.18200
H1081       H  0.22214538  0.81373885  0.55988678     0.04300
H1082       H  0.30048052  0.70684375  0.55927679     0.04300
C1083       C  0.25073097  0.51501421  0.94922416     0.02300
C1084       C  0.19087681  0.96387765  0.95446446     0.02300
C1085       C  0.15713048  0.94818241  0.93764253    -0.18200
C1086       C  0.17409088  0.97124425  0.91910748     0.02300
C1087       C  0.23857462  0.51106401  0.91289772     0.02300
C1088       C  0.26948030  0.53282159  0.93008526    -0.18200
H1089       H  0.30891114  0.56635983  0.92855785     0.04300
H1090       H  0.11750008  0.91447506  0.93850665     0.04300
C1091       C  0.01402777  0.73243889  0.94892360     0.02300
C1092       C  0.46570655  0.70718062  0.94966905     0.02300
C1093       C  0.43943585  0.68731022  0.93123056    -0.18200
C1094       C  0.46505964  0.69058188  0.91395057     0.02300
C1095       C  0.00563716  0.70461834  0.91336957     0.02300
C1096       C  0.03591384  0.73040552  0.93054982    -0.18200
H1097       H  0.07770840  0.75028100  0.92920639     0.04300
H1098       H  0.39727040  0.66667535  0.93023611     0.04300
O1099       O  0.17329055  0.72267931  0.47623202    -0.80900
O1100       O  0.16760340  0.87407813  0.53577750    -0.65500
O1101       O  0.12333064  0.76964423  0.49248040    -1.12200
C1102       C  0.21846170  0.93613121  0.46055455     1.06000
O1103       O  0.21245080  0.94721601  0.51794144    -0.78800
O1104       O  0.10187628  0.88593075  0.47967059    -0.66300
Ni1105     Ni  0.11954189  0.70592181  0.49530221     1.34900
C1106       C  0.07767063  0.84439898  0.46935704     0.84800
O1107       O  0.09332591  0.76128414  0.53194228    -0.79300
O1108       O  0.06401746  0.68607853  0.51419541    -0.89600
C1109       C  0.19781673  0.92562523  0.53473154     0.84300
O1110       O  0.17012382  0.72328231  0.51633198    -0.67800
O1111       O  0.20774420  0.95237791  0.47630989    -0.87100
C1112       C  0.20214534  0.76611039  0.52533298     0.85200
C1113       C  0.05968451  0.71190640  0.52842417     1.06700
H1114       H  0.21958607  0.88226627  0.49839287     0.38500
O1115       O  0.18263360  0.86598872  0.49573744    -1.13500
O1116       O  0.09676460  0.81697900  0.46675264    -0.66400
Ni1117     Ni  0.16139300  0.82173368  0.47264946     1.26300
O1118       O  0.19974058  0.80718330  0.52348272    -0.66600
O1119       O  0.20162180  0.88663208  0.45687770    -0.78900
C1120       C  0.21264521  0.76481658  0.46962483     0.84600
O1121       O  0.21991753  0.81062309  0.47360199    -0.66100
Ni1122     Ni  0.16105741  0.91474045  0.49761939     1.27400
Ni1123     Ni  0.14317741  0.81658669  0.51474680     1.26100
H1124       H  0.08703436  0.75715811  0.49003169     0.39100
O1125       O  0.04595404  0.80592899  0.01904979    -0.80900
O1126       O  0.21259542  0.81695007  0.96404333    -0.65500
O1127       O  0.12416517  0.81987302  0.00048086    -1.12200
C1128       C  0.24619998  0.93438195  0.03365959     1.06000
O1129       O  0.27925651  0.83149723  0.98492603    -0.78800
O1130       O  0.25148115  0.80784873  0.02425694    -0.66300
Ni1131     Ni  0.08618304  0.85080158  0.99763778     1.34900
C1132       C  0.20544194  0.76845572  0.02754690     0.84800
O1133       O  0.10300288  0.78115195  0.96306986    -0.79300
O1134       O  0.04361946  0.79516247  0.97715850    -0.89600
C1135       C  0.25483310  0.81807045  0.96786309     0.84300
O1136       O  0.12827665  0.90425945  0.97809861    -0.67800
O1137       O  0.27595264  0.91593122  0.03013954    -0.87100
C1138       C  0.17029604  0.91871701  0.96905345     0.85200
C1139       C  0.05538974  0.77092635  0.96441465     1.06700
H1140       H  0.22745738  0.89435227  0.99764623     0.38500
O1141       O  0.21603143  0.85898109  0.00083394    -1.09700
O1142       O  0.16467767  0.77060214  0.02331944    -0.66400
Ni1143     Ni  0.17119416  0.83881810  0.02242907     1.26300
O1144       O  0.18762208  0.88873757  0.96852619    -0.66600
O1145       O  0.19904470  0.91166980  0.02630097    -0.78900
C1146       C  0.06331502  0.80395388  0.03637045     0.84600
O1147       O  0.11150883  0.81718886  0.04004889    -0.66100
Ni1148     Ni  0.27808800  0.87098691  0.00815186     1.27400
Ni1149     Ni  0.16528536  0.82102352  0.98095917     1.26100
H1150       H  0.09909310  0.78281937  0.00204885     0.39100
O1151       O  0.49756057  0.70986583  0.23146437    -0.74400
O1152       O  0.08428857  0.71343794  0.26772651    -0.74400
O1153       O  0.07293081  0.71235424  0.22668367    -0.74500
O1154       O  0.50778725  0.71472506  0.27238805    -0.74500
O1155       O  0.47613795  0.62892710  0.27184397    -0.74500
O1156       O  0.03236021  0.62558436  0.22609176    -0.74400
O1157       O  0.04218534  0.62641628  0.26796117    -0.74400
O1158       O  0.46800938  0.62455882  0.23148360    -0.74500
Ni1159     Ni  0.03534550  0.71249014  0.24929423     1.25400
Ni1160     Ni  0.99082212  0.61924254  0.24854763     1.25400
C1161       C  0.46832482  0.66352012  0.22404707     0.87800
C1162       C  0.07668281  0.67146086  0.27553388     0.87700
C1163       C  0.06147646  0.66984009  0.21767438     0.87700
C1164       C  0.47945213  0.66907336  0.27976479     0.87900
O1165       O  0.28868996  0.84423372  0.27290343    -0.74400
O1166       O  0.33669284  0.80003408  0.23032915    -0.74400
O1167       O  0.35359674  0.81089869  0.27056958    -0.74500
O1168       O  0.27453506  0.83505434  0.23281552    -0.74500
O1169       O  0.34099467  0.91795967  0.23000012    -0.74500
O1170       O  0.42141968  0.89245493  0.26677271    -0.74400
O1171       O  0.40256577  0.88226537  0.22591127    -0.74400
O1172       O  0.35703254  0.92642885  0.27039258    -0.74500
Ni1173     Ni  0.31118745  0.81971202  0.25187102     1.25400
Ni1174     Ni  0.38321215  0.90779619  0.24822799     1.25400
C1175       C  0.31529054  0.89185350  0.27896454     0.87800
C1176       C  0.37348144  0.83446026  0.21973312     0.87700
C1177       C  0.39942916  0.84873469  0.27580218     0.87700
C1178       C  0.29665089  0.87915979  0.22403278     0.87900
C1179       C  0.29525818  0.52912862  0.44537917     0.02300
C1180       C  0.24983178  0.97606310  0.44492623     0.02300
C1181       C  0.23571126  0.95708718  0.42534389    -0.18200
C1182       C  0.26552280  0.98574588  0.40916805     0.02300
C1183       C  0.32661116  0.53220285  0.41150760     0.02300
C1184       C  0.32643087  0.55686562  0.42903010    -0.18200
H1185       H  0.35254725  0.59907892  0.42985023     0.04300
H1186       H  0.20026040  0.91916176  0.42258723     0.04300
O1187       O  0.16202014  0.98572385  0.27287758    -0.74400
O1188       O  0.23249903  0.57316028  0.22566100    -0.74400
O1189       O  0.22907108  0.58839515  0.26669245    -0.74500
O1190       O  0.16308986  0.97520009  0.23290894    -0.74500
O1191       O  0.08326212  0.96022276  0.23129778    -0.74500
O1192       O  0.14789642  0.56902530  0.26260330    -0.74400
O1193       O  0.15124999  0.55417753  0.22214577    -0.74400
O1194       O  0.08283412  0.97315320  0.27096878    -0.74500
Ni1195     Ni  0.21570198  0.53132342  0.24889126     1.25400
Ni1196     Ni  0.12869489  0.51084373  0.24520801     1.25400
C1197       C  0.11681715  0.96748820  0.27983004     0.87800
C1198       C  0.19710757  0.57369469  0.21541996     0.87700
C1199       C  0.19147435  0.59286535  0.27224538     0.87700
C1200       C  0.11647656  0.94957095  0.22577178     0.87900
C1201       C  0.25936029  0.96894404  0.05176855     0.02300
C1202       C  0.30782910  0.53604051  0.05107108     0.02300
C1203       C  0.33204870  0.56234329  0.06917209    -0.18200
C1204       C  0.33242882  0.53571149  0.08580567     0.02300
C1205       C  0.25554475  0.96263232  0.08785858     0.02300
C1206       C  0.23958478  0.93954205  0.06903881    -0.18200
H1207       H  0.21302229  0.89727194  0.06791634     0.04300
H1208       H  0.35364581  0.60478294  0.07025725     0.04300
C1209       C  0.25866131  0.72028558  0.45317590     0.02300
C1210       C  0.23988824  0.75591612  0.45263531     0.02300
C1211       C  0.22414090  0.76473004  0.43379997    -0.18200
C1212       C  0.21905706  0.73548892  0.41655712     0.02300
C1213       C  0.22881184  0.69499770  0.41788589     0.02300
C1214       C  0.25041607  0.68950221  0.43572982    -0.18200
H1215       H  0.26283058  0.66209665  0.43571495     0.04300
H1216       H  0.21105289  0.79156353  0.43283830     0.04300
C1217       C  0.20017338  0.72424357  0.04044810     0.02300
C1218       C  0.22887709  0.69747857  0.03968103     0.02300
C1219       C  0.22261240  0.66463619  0.05573597    -0.18200
C1220       C  0.19532201  0.66092675  0.07281018     0.02300
C1221       C  0.16698330  0.68519181  0.07354138     0.02300
C1222       C  0.16822100  0.71452451  0.05719475    -0.18200
H1223       H  0.14803586  0.73478636  0.05862534     0.04300
H1224       H  0.24461643  0.64605610  0.05618824     0.04300
C1225       C  0.48129408  0.80559243  0.45226944     0.02300
C1226       C  0.03887304  0.83824928  0.45407900     0.02300
C1227       C  0.06546530  0.86293073  0.43674242    -0.18200
C1228       C  0.03974713  0.85304678  0.41868473     0.02300
C1229       C  0.48390222  0.82842608  0.41745606     0.02300
C1230       C  0.45641914  0.79992721  0.43373052    -0.18200
H1231       H  0.41463386  0.77287446  0.43179503     0.04300
H1232       H  0.10767815  0.88872130  0.43699397     0.04300
C1233       C  0.47292473  0.76959450  0.05054872     0.02300
C1234       C  0.02718502  0.79056875  0.05341971     0.02300
C1235       C  0.05151181  0.80796685  0.07242092    -0.18200
C1236       C  0.02452627  0.80834393  0.08898911     0.02300
C1237       C  0.46666917  0.77914900  0.08629979     0.02300
C1238       C  0.44365242  0.76176045  0.06754388    -0.18200
H1239       H  0.40179162  0.74332976  0.06606535     0.04300
H1240       H  0.09306815  0.82534881  0.07423435     0.04300
C1241       C  0.10864967  0.94985751  0.30017870    -0.19800
C1242       C  0.06980783  0.89928863  0.30585655     0.36400
C1243       C  0.06464423  0.88758969  0.32617031    -0.25800
C1244       C  0.09681108  0.92602021  0.34054591     0.02800
C1245       C  0.13679882  0.97574704  0.33448977     0.27600
C1246       C  0.14256587  0.98693286  0.31436299    -0.24900
N1247       N  0.03835632  0.85971487  0.29107521    -0.82300
H1248       H  0.03555369  0.84869486  0.33075806     0.13400
C1249       C  0.09010880  0.91305590  0.36175873     0.02800
N1250       N  0.17289351  0.01415484  0.34865083    -0.80900
H1251       H  0.17385463  0.02516459  0.30966321     0.18200
C1252       C  0.10001103  0.87574526  0.36878192    -0.25700
C1253       C  0.08963548  0.85916071  0.38842383     0.36300
C1254       C  0.06935199  0.88072392  0.40110863    -0.19800
C1255       C  0.06537486  0.92203961  0.39475789    -0.25000
C1256       C  0.07322406  0.93678823  0.37501279     0.27700
H1257       H  0.11364627  0.85794717  0.35872145     0.13400
N1258       N  0.09816990  0.81941716  0.39492252    -0.82300
H1259       H  0.05078287  0.93923649  0.40466645     0.18300
N1260       N  0.06016491  0.97300574  0.36835294    -0.80900
H1261       H  0.06322378  0.78741551  0.39988750     0.33900
H1262       H  0.12448807  0.83458618  0.40698087     0.38400
H1263       H  0.02098999  0.95743924  0.37133513     0.33900
H1264       H  0.08200054  0.00741035  0.37690582     0.30600
H1265       H  0.20179133  0.04724469  0.34139478     0.33900
H1266       H  0.15365465  0.02642647  0.35746205     0.30600
H1267       H  0.01178497  0.82433424  0.29782038     0.38400
H1268       H  0.01671423  0.87158110  0.28326362     0.33900
C1269       C  0.10148011  0.91132036  0.20929789    -0.19800
C1270       C  0.13523749  0.89754833  0.20142277     0.36400
C1271       C  0.12768719  0.87987042  0.18152720    -0.25800
C1272       C  0.08480264  0.87133793  0.17021756     0.02800
C1273       C  0.04542252  0.87278529  0.18015180     0.27600
C1274       C  0.05490063  0.89493885  0.19903280    -0.24900
N1275       N  0.17657157  0.90066836  0.21313560    -0.82300
H1276       H  0.15445294  0.87172515  0.17501267     0.13400
C1277       C  0.08120005  0.86261715  0.14826099     0.02800
N1278       N  0.99500254  0.85170982  0.17155673    -0.80900
H1279       H  0.02579331  0.90057429  0.20535143     0.18200
C1280       C  0.08506767  0.82231416  0.14008084    -0.25700
C1281       C  0.07086942  0.80639381  0.12018014     0.36300
C1282       C  0.05291225  0.83173595  0.10813155    -0.19800
C1283       C  0.05494954  0.87596513  0.11567210    -0.25000
C1284       C  0.06842077  0.89138878  0.13563817     0.27700
H1285       H  0.09546570  0.80073431  0.14956567     0.13400
N1286       N  0.57290183  0.75985915  0.11306175    -0.82300
H1287       H  0.04258950  0.89634728  0.10628544     0.18300
N1288       N  0.06525939  0.93360737  0.14360288    -0.80900
H1289       H  0.53610689  0.72888629  0.10828062     0.33900
H1290       H  0.59756885  0.77308386  0.10095444     0.38400
H1291       H  0.10220474  0.96260535  0.14902027     0.33900
H1292       H  0.05418575  0.94998320  0.13255409     0.30600
H1293       H  0.99069029  0.83147043  0.15842646     0.33900
H1294       H  0.96904840  0.82386849  0.18148447     0.30600
H1295       H  0.17137732  0.90391214  0.22820828     0.38400
H1296       H  0.17242734  0.86428897  0.21210122     0.33900
C1297       C  0.19246457  0.61368356  0.29255704    -0.19800
C1298       C  0.23366034  0.66065486  0.30105877     0.36400
C1299       C  0.23451085  0.67005363  0.32183491    -0.25800
C1300       C  0.19686110  0.63177265  0.33474939     0.02800
C1301       C  0.15299111  0.58752896  0.32528376     0.27600
C1302       C  0.15123314  0.58012987  0.30465148    -0.24900
N1303       N  0.27371122  0.69896611  0.28864223    -0.82300
H1304       H  0.26537639  0.70745913  0.32785076     0.13400
C1305       C  0.20454497  0.63868787  0.35748928     0.02800
N1306       N  0.11010072  0.54824085  0.33620838    -0.80900
H1307       H  0.11851221  0.54497710  0.29812420     0.18200
C1308       C  0.16206459  0.61950058  0.37042133    -0.25700
C1309       C  0.16896901  0.62878274  0.39116036     0.36300
C1310       C  0.21967637  0.66180576  0.39956576    -0.19800
C1311       C  0.26188742  0.67644786  0.38735500    -0.25000
C1312       C  0.25500625  0.66501291  0.36671146     0.27700
H1313       H  0.12266703  0.59967445  0.36468598     0.13400
N1314       N  0.12351093  0.60523098  0.40322031    -0.82300
H1315       H  0.30091312  0.70130581  0.39360749     0.18300
N1316       N  0.29985278  0.68218737  0.35498468    -0.80900
H1317       H  0.10016427  0.61902481  0.39875832     0.33900
H1318       H  0.13355976  0.61545640  0.41819457     0.38400
H1319       H  0.33371893  0.69905357  0.36386659     0.33900
H1320       H  0.29456780  0.64892640  0.34787315     0.30600
H1321       H  0.07690394  0.54757971  0.33165700     0.33900
H1322       H  0.10386860  0.51197060  0.33213562     0.30600
H1323       H  0.25597171  0.71021043  0.27820435     0.38400
H1324       H  0.29905604  0.73263281  0.29707623     0.33900
C1325       C  0.20700043  0.59040609  0.19453475    -0.19800
C1326       C  0.19184848  0.62290404  0.18649611     0.36400
C1327       C  0.19302572  0.62960069  0.16582193    -0.25800
C1328       C  0.21017859  0.60568593  0.15304163     0.02800
C1329       C  0.22719584  0.57459049  0.16117858     0.27600
C1330       C  0.22531464  0.56712295  0.18184328    -0.24900
N1331       N  0.17511260  0.64868174  0.19934857    -0.82300
H1332       H  0.17902192  0.65223499  0.15950310     0.13400
C1333       C  0.20956606  0.61406945  0.13128124     0.02800
N1334       N  0.24628868  0.55078836  0.14851143    -0.80900
H1335       H  0.23639941  0.54147438  0.18800172     0.18200
C1336       C  0.25108440  0.65990072  0.12320432    -0.25700
C1337       C  0.24939805  0.67256822  0.10334021     0.36300
C1338       C  0.20441103  0.64019058  0.09139838    -0.19800
C1339       C  0.16404777  0.59290365  0.09908974    -0.25000
C1340       C  0.16648102  0.57914442  0.11885323     0.27700
H1341       H  0.28480232  0.68626145  0.13246953     0.13400
N1342       N  0.29347457  0.71915115  0.09571201    -0.82300
H1343       H  0.12957299  0.56792249  0.08993575     0.18300
N1344       N  0.12514463  0.53020632  0.12635665    -0.80900
H1345       H  0.30755108  0.70855497  0.08377343     0.33900
H1346       H  0.28202688  0.74383957  0.09046339     0.38400
H1347       H  0.09664845  0.50886573  0.11531719     0.33900
H1348       H  0.10728525  0.53831062  0.13756528     0.30600
H1349       H  0.25279073  0.52526994  0.15648074     0.33900
H1350       H  0.21768240  0.52839343  0.13777470     0.30600
H1351       H  0.20598894  0.67317010  0.20912903     0.38400
H1352       H  0.16827717  0.67336741  0.19104709     0.33900
C1353       C  0.45779877  0.81683786  0.39760879    -0.19800
C1354       C  0.43347982  0.84248364  0.39072218     0.36400
C1355       C  0.42410909  0.84269094  0.37012343    -0.25800
C1356       C  0.43857914  0.81770745  0.35641230     0.02800
C1357       C  0.45956457  0.78943847  0.36384977     0.27600
C1358       C  0.46747188  0.78800026  0.38424849    -0.24900
N1359       N  0.41942746  0.86888580  0.40453882    -0.82300
H1360       H  0.40716572  0.86394268  0.36467719     0.13400
C1361       C  0.43517062  0.82517690  0.33460620     0.02800
N1362       N  0.47499289  0.76340683  0.35083686    -0.80900
H1363       H  0.98056354  0.75785959  0.38841780     0.18200
C1364       C  0.45730542  0.87639183  0.32757746    -0.25700
C1365       C  0.45247721  0.88587342  0.30753349     0.36300
C1366       C  0.42336236  0.84319651  0.29417376    -0.19800
C1367       C  0.40633316  0.79269292  0.30064372    -0.25000
C1368       C  0.41103112  0.78308014  0.32066110     0.27700
H1369       H  0.47780387  0.90942440  0.33775797     0.13400
N1370       N  0.47492551  0.93872407  0.30114225    -0.82300
H1371       H  0.38587503  0.75975613  0.29033447     0.18300
N1372       N  0.38845580  0.73008115  0.32669654    -0.80900
H1373       H  0.51505820  0.95901430  0.30399381     0.33900
H1374       H  0.46007119  0.95634979  0.30972858     0.38400
H1375       H  0.34950162  0.70879963  0.32192778     0.33900
H1376       H  0.40685819  0.71469341  0.31900932     0.30600
H1377       H  0.01538864  0.77929886  0.35288123     0.33900
H1378       H  0.45313648  0.72424124  0.35490992     0.30600
H1379       H  0.45342616  0.89940741  0.41141495     0.38400
H1380       H  0.40233288  0.88616318  0.39701830     0.33900
C1381       C  0.37686350  0.81991629  0.19901568    -0.19800
C1382       C  0.35300977  0.76703566  0.19285659     0.36400
C1383       C  0.34957001  0.75434692  0.17260431    -0.25800
C1384       C  0.37558184  0.79357065  0.15845164     0.02800
C1385       C  0.39529791  0.84609431  0.16431168     0.27600
C1386       C  0.39523126  0.85855994  0.18442681    -0.24900
N1387       N  0.33331330  0.72606042  0.20710282    -0.82300
H1388       H  0.32811451  0.71347167  0.16811856     0.13400
C1389       C  0.38903680  0.78070605  0.13886153     0.02800
N1390       N  0.41772639  0.88741369  0.15016273    -0.80900
H1391       H  0.41045942  0.89897759  0.18862386     0.18200
C1392       C  0.38531694  0.80399878  0.12146061    -0.25700
C1393       C  0.40929112  0.80341390  0.10397444     0.36300
C1394       C  0.43386801  0.77502357  0.10317303    -0.19800
C1395       C  0.43243871  0.74694041  0.11974893    -0.25000
C1396       C  0.41267270  0.75125279  0.13763939     0.27700
H1397       H  0.36604351  0.82526843  0.12167838     0.13400
N1398       N  0.41057747  0.83444525  0.08776272    -0.82300
H1399       H  0.45098755  0.72492538  0.11928401     0.18300
N1400       N  0.42176272  0.72887704  0.15453811    -0.80900
H1401       H  0.39086705  0.80993500  0.07551013     0.33900
H1402       H  0.44937423  0.86093586  0.08411802     0.38400
H1403       H  0.44424170  0.75759724  0.16517243     0.33900
H1404       H  0.38691614  0.70033563  0.16066256     0.30600
H1405       H  0.45619556  0.91511807  0.15445759     0.33900
H1406       H  0.39744928  0.90616439  0.15063617     0.30600
H1407       H  0.29394401  0.69932465  0.20377722     0.38400
H1408       H  0.35273885  0.70657527  0.20539072     0.33900
C1409       C  0.29808940  0.90534591  0.29678423    -0.19800
C1410       C  0.31773458  0.90326294  0.31556693     0.36400
C1411       C  0.29639692  0.91003250  0.33263107    -0.25800
C1412       C  0.25496297  0.91748196  0.33126154     0.02800
C1413       C  0.23373575  0.91711608  0.31252426     0.27600
C1414       C  0.25605067  0.91174109  0.29532960    -0.24900
N1415       N  0.35789317  0.89238096  0.31725991    -0.82300
H1416       H  0.31181275  0.90908124  0.34711102     0.13400
C1417       C  0.23710337  0.92780910  0.34986630     0.02800
N1418       N  0.18801570  0.91905866  0.31111350    -0.80900
H1419       H  0.23949113  0.91052377  0.28082305     0.18200
C1420       C  0.24605494  0.97740940  0.35355175    -0.25700
C1421       C  0.24789299  0.99461411  0.37304327     0.36300
C1422       C  0.24622946  0.96360104  0.38893669    -0.19800
C1423       C  0.22978889  0.91142260  0.38506632    -0.25000
C1424       C  0.22248961  0.89271249  0.36552713     0.27700
H1425       H  0.25370578  0.00358635  0.34139630     0.13400
N1426       N  0.20700959  0.44879443  0.38341637    -0.82300
H1427       H  0.22535502  0.88593426  0.39712706     0.18300
N1428       N  0.20236055  0.83872491  0.36146570    -0.80900
H1429       H  0.22216706  0.48601613  0.38954964     0.33900
H1430       H  0.18810050  0.42159091  0.39462817     0.38400
H1431       H  0.18988221  0.81848666  0.37473363     0.33900
H1432       H  0.16875733  0.82412260  0.35257742     0.30600
H1433       H  0.17645036  0.91635162  0.29623235     0.33900
H1434       H  0.15812153  0.88556911  0.31793354     0.30600
H1435       H  0.34226210  0.85407389  0.31202031     0.38400
H1436       H  0.36843985  0.89300099  0.33215949     0.33900
C1437       C  0.23533148  0.92946930  0.10545492    -0.19800
C1438       C  0.21038278  0.94086990  0.11993137     0.36400
C1439       C  0.21042577  0.92570912  0.13952339    -0.25800
C1440       C  0.23565268  0.89984143  0.14481734     0.02800
C1441       C  0.25444352  0.88238062  0.12939878     0.27600
C1442       C  0.25229376  0.89601768  0.10972894    -0.24900
N1443       N  0.18876258  0.97128865  0.11476060    -0.82300
H1444       H  0.19295034  0.93657830  0.15071362     0.13400
C1445       C  0.24508703  0.89390633  0.16625125     0.02800
N1446       N  0.27908964  0.85426673  0.13374046    -0.80900
H1447       H  0.27043091  0.88658963  0.09818912     0.18200
C1448       C  0.23774956  0.84666865  0.17242933    -0.25700
C1449       C  0.25337322  0.84099421  0.19127818     0.36300
C1450       C  0.27443206  0.88290347  0.20508098    -0.19800
C1451       C  0.27945969  0.92982264  0.19954637    -0.25000
C1452       C  0.26291930  0.93478545  0.18053704     0.27700
H1453       H  0.22009482  0.81397700  0.16239093     0.13400
N1454       N  0.24961514  0.79308712  0.19598805    -0.82300
H1455       H  0.29540011  0.96237066  0.21007072     0.18300
N1456       N  0.26454068  0.98142528  0.17592434    -0.80900
H1457       H  0.21051328  0.76281282  0.19468899     0.33900
H1458       H  0.27010865  0.78632956  0.18540914     0.38400
H1459       H  0.30238379  0.01216837  0.17872967     0.33900
H1460       H  0.24082323  0.98527815  0.18585873     0.30600
H1461       H  0.29166977  0.84564683  0.12079081     0.33900
H1462       H  0.31211953  0.87830368  0.14260103     0.30600
H1463       H  0.16005551  0.95039615  0.10375598     0.38400
H1464       H  0.16973661  0.97439156  0.12684077     0.33900
C1465       C  0.35773890  0.56445763  0.39451466    -0.19800
C1466       C  0.34332639  0.59470449  0.38374133     0.36400
C1467       C  0.36541506  0.61442165  0.36538168    -0.25800
C1468       C  0.40206474  0.60568518  0.35752745     0.02800
C1469       C  0.42059176  0.58033822  0.36901976     0.27600
C1470       C  0.39861373  0.56027538  0.38756573    -0.24900
N1471       N  0.30657352  0.60606211  0.39098197    -0.82300
H1472       H  0.35423063  0.63674070  0.35692256     0.13400
C1473       C  0.42015252  0.62367102  0.33722591     0.02800
N1474       N  0.46033791  0.57355378  0.36162967    -0.80900
H1475       H  0.41175213  0.53925401  0.39613051     0.18200
C1476       C  0.47124940  0.66582095  0.33462840    -0.25700
C1477       C  0.48757268  0.68853053  0.31596599     0.36300
C1478       C  0.45551981  0.66220025  0.29911844    -0.19800
C1479       C  0.40453880  0.61945285  0.30161925    -0.25000
C1480       C  0.38545908  0.60214537  0.32069186     0.27700
H1481       H  0.49733142  0.68310634  0.34744128     0.13400
N1482       N  0.53627755  0.73786136  0.31412538    -0.82300
H1483       H  0.37980702  0.59958883  0.28866896     0.18300
N1484       N  0.33122036  0.56339226  0.32336436    -0.80900
H1485       H  0.55495764  0.75167483  0.32799048     0.33900
H1486       H  0.56080856  0.73218426  0.30551384     0.38400
H1487       H  0.31867050  0.04209355  0.31673503     0.33900
H1488       H  0.34521830  0.00589546  0.31785043     0.30600
H1489       H  0.44571847  0.53343862  0.36109011     0.33900
H1490       H  0.49177469  0.59131973  0.37176456     0.30600
H1491       H  0.32141143  0.62786210  0.40419088     0.38400
H1492       H  0.27165105  0.57124195  0.39391604     0.33900
C1493       C  0.44346848  0.65659957  0.20433265    -0.19800
C1494       C  0.39017035  0.61996856  0.20030236     0.36400
C1495       C  0.37237269  0.60633246  0.18034344    -0.25800
C1496       C  0.40777600  0.62514247  0.16470538     0.02800
C1497       C  0.45986230  0.66460278  0.16886330     0.27600
C1498       C  0.47711959  0.68076686  0.18848694    -0.24900
N1499       N  0.35494211  0.59596466  0.21638723    -0.82300
H1500       H  0.33146551  0.57894331  0.17706634     0.13400
C1501       C  0.39097149  0.60386295  0.14401962     0.02800
N1502       N  0.49510251  0.68865908  0.15295149    -0.80900
H1503       H  0.51793334  0.70995986  0.19138817     0.18200
C1504       C  0.35520123  0.61146807  0.13375328    -0.25700
C1505       C  0.33917895  0.59303135  0.11416704     0.36300
C1506       C  0.35754406  0.56505222  0.10470976    -0.19800
C1507       C  0.39572851  0.56021448  0.11431350    -0.25000
C1508       C  0.41223332  0.57847608  0.13387294     0.27700
H1509       H  0.33919589  0.63154900  0.14087898     0.13400
N1510       N  0.30371891  0.60221174  0.10380767    -0.82300
H1511       H  0.34468478  0.98360328  0.11115713     0.18300
N1512       N  0.44960124  0.56931870  0.14287798    -0.80900
H1513       H  0.32046174  0.64267856  0.10356034     0.33900
H1514       H  0.26909076  0.58456505  0.11151673     0.38400
H1515       H  0.37352760  0.96565941  0.13907674     0.33900
H1516       H  0.45776800  0.58176335  0.15766869     0.30600
H1517       H  0.51044366  0.72873101  0.15397397     0.33900
H1518       H  0.52531260  0.68271957  0.15514808     0.30600
H1519       H  0.35369388  0.62546715  0.22394792     0.38400
H1520       H  0.31724540  0.56926488  0.21089563     0.33900
C1521       C  0.10399002  0.67678068  0.29499610    -0.19800
C1522       C  0.07867376  0.64189499  0.31085195     0.36400
C1523       C  0.09935148  0.65691829  0.33051775    -0.25800
C1524       C  0.14429489  0.70652931  0.33504456     0.02800
C1525       C  0.17027251  0.73965384  0.31892122     0.27600
C1526       C  0.15066940  0.72441367  0.29935542    -0.24900
N1527       N  0.03053495  0.59263667  0.30725355    -0.82300
H1528       H  0.07944965  0.62990478  0.34242517     0.13400
C1529       C  0.16390456  0.72286661  0.35640021     0.02800
N1530       N  0.21493692  0.79092065  0.32228537    -0.80900
H1531       H  0.17055165  0.75211649  0.28758261     0.18200
C1532       C  0.21769082  0.74955668  0.36106248    -0.25700
C1533       C  0.23706506  0.76265455  0.38083382     0.36300
C1534       C  0.20226098  0.74513054  0.39672499    -0.19800
C1535       C  0.14917075  0.72294586  0.39226297    -0.25000
C1536       C  0.12991526  0.71232229  0.37237124     0.27700
H1537       H  0.24504227  0.75855952  0.34940680     0.13400
N1538       N  0.29206155  0.79019712  0.38499975    -0.82300
H1539       H  0.12198655  0.71052844  0.40427776     0.18300
N1540       N  0.07579236  0.69096499  0.36855240    -0.80900
H1541       H  0.31250806  0.79941180  0.37179217     0.33900
H1542       H  0.30302982  0.82577058  0.39193130     0.38400
H1543       H  0.05448507  0.65581883  0.37619776     0.33900
H1544       H  0.06680143  0.71710937  0.37438821     0.30600
H1545       H  0.24521552  0.79399544  0.31408772     0.33900
H1546       H  0.20579662  0.81688164  0.31652552     0.30600
H1547       H  0.00282014  0.60079417  0.30271375     0.38400
H1548       H  0.01685942  0.57201420  0.32045291     0.33900
C1549       C  0.14470817  0.68767139  0.09298601    -0.19800
C1550       C  0.09391357  0.64852585  0.09862630     0.36400
C1551       C  0.07968373  0.64473756  0.11880937    -0.25800
C1552       C  0.11626217  0.67703285  0.13378092     0.02800
C1553       C  0.16767223  0.71504081  0.12783212     0.27600
C1554       C  0.17951115  0.72248191  0.10762461    -0.24900
N1555       N  0.05767499  0.61171673  0.08397403    -0.82300
H1556       H  0.04021752  0.61573259  0.12289051     0.13400
C1557       C  0.10017311  0.67303326  0.15516095     0.02800
N1558       N  0.21017388  0.74440129  0.14177169    -0.80900
H1559       H  0.21868104  0.75237236  0.10355387     0.18200
C1560       C  0.11185555  0.71867189  0.16537116    -0.25700
C1561       C  0.10051733  0.71842816  0.18553740     0.36300
C1562       C  0.07739511  0.67162002  0.19646259    -0.19800
C1563       C  0.06306840  0.62511693  0.18599679    -0.25000
C1564       C  0.07420377  0.62547737  0.16563683     0.27700
H1565       H  0.13034143  0.75517917  0.15753226     0.13400
N1566       N  0.11052286  0.76581555  0.19455650    -0.82300
H1567       H  0.04336167  0.58810473  0.19362821     0.18300
N1568       N  0.06005773  0.57743547  0.15590147    -0.80900
H1569       H  0.08893620  0.77760482  0.18666792     0.33900
H1570       H  0.14978220  0.79416535  0.19297714     0.38400
H1571       H  0.07644270  0.56054329  0.16416334     0.33900
H1572       H  0.01960578  0.55240269  0.15643537     0.30600
H1573       H  0.19950388  0.73243103  0.15629088     0.33900
H1574       H  0.23890311  0.73674976  0.13871146     0.30600
H1575       H  0.05014541  0.63267992  0.07370398     0.38400
H1576       H  0.02222079  0.58491924  0.09047304     0.33900
C1577       C  0.36016414  0.80134222  0.79188825    -0.19800
C1578       C  0.37546539  0.84110383  0.80633992     0.36400
C1579       C  0.36490440  0.82799884  0.82624289    -0.25800
C1580       C  0.33725256  0.77580163  0.83225018     0.02800
C1581       C  0.31444388  0.73638228  0.81737222     0.27600
C1582       C  0.32759845  0.74909149  0.79738728    -0.24900
N1583       N  0.40467982  0.89518521  0.80116470    -0.82300
H1584       H  0.38053740  0.85921591  0.83719199     0.13400
C1585       C  0.33188929  0.76523341  0.85403605     0.02800
N1586       N  0.27854265  0.68342172  0.82236733    -0.80900
H1587       H  0.31407167  0.71800741  0.78633312     0.18200
C1588       C  0.28357912  0.72806477  0.86217059    -0.25700
C1589       C  0.27578382  0.72808509  0.88255759     0.36300
C1590       C  0.31578845  0.76689217  0.89480534    -0.19800
C1591       C  0.36578989  0.79861006  0.88745983    -0.25000
C1592       C  0.37457732  0.79703506  0.86720316     0.27700
H1593       H  0.25040047  0.70118586  0.85291572     0.13400
N1594       N  0.22644532  0.69057534  0.89070850    -0.82300
H1595       H  0.39708430  0.82712774  0.89723535     0.18300
N1596       N  0.42620381  0.82940815  0.85973234    -0.80900
H1597       H  0.21898313  0.65325134  0.88783554     0.33900
H1598       H  0.19788675  0.69289008  0.88305804     0.38400
H1599       H  0.45338616  0.84844478  0.87137815     0.33900
H1600       H  0.43496260  0.80441159  0.85271080     0.30600
H1601       H  0.24315107  0.67203279  0.81533309     0.33900
H1602       H  0.29210542  0.66188217  0.81612479     0.30600
H1603       H  0.38318928  0.91111022  0.80539523     0.38400
H1604       H  0.43914323  0.91382584  0.80965440     0.33900
C1605       C  0.13650694  0.95060125  0.90181603    -0.19800
C1606       C  0.12485966  0.90490114  0.89161204     0.36400
C1607       C  0.09811653  0.89188344  0.87316873    -0.25800
C1608       C  0.07897093  0.92132225  0.86513961     0.02800
C1609       C  0.08318919  0.96210153  0.87737404     0.27600
C1610       C  0.11406341  0.97779656  0.89495873    -0.24900
N1611       N  0.14329558  0.87374636  0.89944253    -0.82300
H1612       H  0.09501729  0.86033654  0.86461074     0.13400
C1613       C  0.05951549  0.91145520  0.84369285     0.02800
N1614       N  0.05423912  0.98601130  0.87332490    -0.80900
H1615       H  0.11455121  0.49191199  0.90161028     0.18200
C1616       C  0.07207187  0.95378153  0.83125739    -0.25700
C1617       C  0.05585545  0.94596728  0.81112338     0.36300
C1618       C  0.03323476  0.89616374  0.80210893    -0.19800
C1619       C  0.01988206  0.85366955  0.81442469    -0.25000
C1620       C  0.03038784  0.86050703  0.83501790     0.27700
H1621       H  0.09329612  0.99323830  0.83723922     0.13400
N1622       N  0.06092663  0.98845198  0.80008765    -0.82300
H1623       H  0.99809006  0.81415101  0.80827440     0.18300
N1624       N  0.00757440  0.81514083  0.84712043    -0.80900
H1625       H  0.04111030  0.00271485  0.80750943     0.33900
H1626       H  0.10004618  0.01778017  0.80031399     0.38400
H1627       H  0.96727219  0.79648954  0.84538687     0.33900
H1628       H  0.01703321  0.78959544  0.84118824     0.30600
H1629       H  0.01995992  0.43901737  0.86033391     0.33900
H1630       H  0.08038205  0.02571797  0.87068442     0.30600
H1631       H  0.11120672  0.83755190  0.90340949     0.38400
H1632       H  0.16297084  0.86737879  0.88836475     0.33900
C1633       C  0.05657313  0.90227133  0.70363317    -0.19800
C1634       C  0.05919218  0.94078963  0.69105221     0.36400
C1635       C  0.06864917  0.94039712  0.67065411    -0.25800
C1636       C  0.07812146  0.90374151  0.66243255     0.02800
C1637       C  0.07497335  0.86501520  0.67500002     0.27600
C1638       C  0.06586744  0.86556172  0.69533376    -0.24900
N1639       N  0.05252132  0.98068180  0.69884354    -0.82300
H1640       H  0.06906192  0.96940373  0.66129995     0.13400
C1641       C  0.09763505  0.90967625  0.64160963     0.02800
N1642       N  0.07853772  0.82345876  0.66680774    -0.80900
H1643       H  0.06273958  0.83474235  0.70446598     0.18200
C1644       C  0.14210901  0.90796358  0.63865155    -0.25700
C1645       C  0.16613572  0.91798162  0.62026659     0.36300
C1646       C  0.14638349  0.93208690  0.60412879    -0.19800
C1647       C  0.09997417  0.93087823  0.60649239    -0.25000
C1648       C  0.07552581  0.91987673  0.62506283     0.27700
H1649       H  0.16011449  0.90141035  0.65116636     0.13400
N1650       N  0.21186501  0.91575468  0.61877751    -0.82300
H1651       H  0.08474234  0.94218380  0.59426943     0.18300
N1652       N  0.02905873  0.92015200  0.62706651    -0.80900
H1653       H  0.24087990  0.94497076  0.62810489     0.33900
H1654       H  0.22617425  0.92281963  0.60440843     0.38400
H1655       H  0.03734184  0.95715826  0.62309774     0.33900
H1656       H  0.00116921  0.89268187  0.61693575     0.30600
H1657       H  0.07343682  0.79677737  0.67772351     0.33900
H1658       H  0.04752114  0.80327713  0.65665619     0.30600
H1659       H  0.08672209  0.01671596  0.69618904     0.38400
H1660       H  0.02187816  0.97904933  0.69095667     0.33900
C1661       C  0.38894320  0.79884578  0.69712660    -0.19800
C1662       C  0.34085877  0.78946446  0.69055050     0.36400
C1663       C  0.32662681  0.77814947  0.67026852    -0.25800
C1664       C  0.36103354  0.77888273  0.65637548     0.02800
C1665       C  0.40935416  0.78848494  0.66322154     0.27600
C1666       C  0.42232735  0.79723003  0.68352612    -0.24900
N1667       N  0.30696391  0.79175412  0.70446248    -0.82300
H1668       H  0.28931318  0.77060992  0.66517077     0.13400
C1669       C  0.34575318  0.76952218  0.63486932     0.02800
N1670       N  0.44564547  0.78986311  0.64964380    -0.80900
H1671       H  0.45973797  0.80488541  0.68859134     0.18200
C1672       C  0.37823580  0.80550373  0.62059812    -0.25700
C1673       C  0.36259998  0.79881960  0.60047089     0.36300
C1674       C  0.31302333  0.75520902  0.59447479    -0.19800
C1675       C  0.28337891  0.71672890  0.60838134    -0.25000
C1676       C  0.29847061  0.72460599  0.62851535     0.27700
H1677       H  0.41501305  0.84016366  0.62521586     0.13400
N1678       N  0.39747892  0.83728270  0.58663080    -0.82300
H1679       H  0.24621729  0.68233089  0.60392385     0.18300
N1680       N  0.26546549  0.68675305  0.64260924    -0.80900
H1681       H  0.40290481  0.87329955  0.59060607     0.33900
H1682       H  0.38187103  0.82804496  0.57218171     0.38400
H1683       H  0.22862893  0.68123593  0.64129688     0.33900
H1684       H  0.26275991  0.65220933  0.63862132     0.30600
H1685       H  0.48015747  0.82662939  0.65113291     0.33900
H1686       H  0.45413092  0.76226449  0.65404434     0.30600
H1687       H  0.29738656  0.76355630  0.71527939     0.38400
H1688       H  0.27230359  0.78182423  0.69724116     0.33900
C1689       C  0.09139219  0.65355794  0.79714206    -0.19800
C1690       C  0.05667729  0.67025987  0.79896488     0.36400
C1691       C  0.04529576  0.68043797  0.81815088    -0.25800
C1692       C  0.06774560  0.67370129  0.83547506     0.02800
C1693       C  0.10368236  0.65858519  0.83328353     0.27600
C1694       C  0.11527971  0.64926624  0.81425310    -0.24900
N1695       N  0.03494208  0.67874585  0.78144188    -0.82300
H1696       H  0.01920161  0.69402232  0.81963200     0.13400
C1697       C  0.05540064  0.68426051  0.85582055     0.02800
N1698       N  0.13013320  0.65501861  0.85039382    -0.80900
H1699       H  0.14484729  0.64042382  0.81264763     0.18200
C1700       C  0.03777716  0.64521468  0.87031233    -0.25700
C1701       C  0.02666075  0.65340184  0.88966198     0.36300
C1702       C  0.02964901  0.70032543  0.89466739    -0.19800
C1703       C  0.04794911  0.73960433  0.88030896    -0.25000
C1704       C  0.06335599  0.73325549  0.86142119     0.27700
H1705       H  0.03297326  0.60799632  0.86660085     0.13400
N1706       N  0.51904435  0.61680381  0.90212748    -0.82300
H1707       H  0.04985872  0.77542173  0.88364934     0.18300
N1708       N  0.08860172  0.77791580  0.84871645    -0.80900
H1709       H  0.48449914  0.58586948  0.89568508     0.33900
H1710       H  0.51014605  0.62441289  0.91612035     0.38400
H1711       H  0.12159874  0.80762795  0.85636002     0.33900
H1712       H  0.10262991  0.77069519  0.83592664     0.30600
H1713       H  0.15693173  0.64568848  0.84611929     0.33900
H1714       H  0.15197687  0.69246899  0.85678420     0.30600
H1715       H  0.01133540  0.64259247  0.77412946     0.38400
H1716       H  0.01099156  0.69214673  0.78528388     0.33900
C1717       C  0.26088270  0.53439734  0.89338983    -0.19800
C1718       C  0.27330046  0.58496270  0.88830630     0.36400
C1719       C  0.27697209  0.59802485  0.86827005    -0.25800
C1720       C  0.26220370  0.55938700  0.85347543     0.02800
C1721       C  0.25638751  0.51164540  0.85849646     0.27600
C1722       C  0.26126752  0.50223140  0.87850983    -0.24900
N1723       N  0.27821766  0.62201096  0.90289300    -0.82300
H1724       H  0.28389758  0.63579044  0.86431051     0.13400
C1725       C  0.24040542  0.56385611  0.83445627     0.02800
N1726       N  0.24181901  0.47169406  0.84356592    -0.80900
H1727       H  0.25959479  0.46714077  0.88263402     0.18200
C1728       C  0.26385161  0.56591042  0.81646430    -0.25700
C1729       C  0.24349235  0.57130608  0.79839308     0.36300
C1730       C  0.19862915  0.57299559  0.79850826    -0.19800
C1731       C  0.17230012  0.56546641  0.81615992    -0.25000
C1732       C  0.19369750  0.56289664  0.83430010     0.27700
H1733       H  0.29963589  0.56694965  0.81670725     0.13400
N1734       N  0.26925789  0.57778390  0.78005797    -0.82300
H1735       H  0.13645043  0.56444617  0.81594154     0.18300
N1736       N  0.16849395  0.55987043  0.85256076    -0.80900
H1737       H  0.30224211  0.57683413  0.78276999     0.33900
H1738       H  0.24440038  0.54533998  0.77092609     0.38400
H1739       H  0.13433873  0.55896605  0.84971065     0.33900
H1740       H  0.19228431  0.59498067  0.86039548     0.30600
H1741       H  0.23632042  0.43789085  0.85004880     0.33900
H1742       H  0.20558495  0.46102999  0.83750106     0.30600
H1743       H  0.24431394  0.60461701  0.91116569     0.38400
H1744       H  0.30985689  0.63221529  0.91234446     0.33900
C1745       C  0.21302648  0.57445464  0.70997670    -0.19800
C1746       C  0.25307982  0.61463456  0.69859816     0.36400
C1747       C  0.26076152  0.60383999  0.67922174    -0.25800
C1748       C  0.22979550  0.55342017  0.67112875     0.02800
C1749       C  0.19713724  0.51155171  0.68353246     0.27600
C1750       C  0.18823909  0.52243387  0.70287199    -0.24900
N1751       N  0.28288919  0.66748998  0.70581386    -0.82300
H1752       H  0.28885005  0.63564274  0.67012214     0.13400
C1753       C  0.22828358  0.54610035  0.64939350     0.02800
N1754       N  0.17221437  0.45863617  0.67619275    -0.80900
H1755       H  0.16004056  0.49061407  0.71194151     0.18200
C1756       C  0.26087050  0.53216471  0.64121165    -0.25700
C1757       C  0.26063888  0.52406453  0.62073237     0.36300
C1758       C  0.22788353  0.53114686  0.60811124    -0.19800
C1759       C  0.19777762  0.54877026  0.61609010    -0.25000
C1760       C  0.19641047  0.55498380  0.63666994     0.27700
H1761       H  0.28558492  0.52658043  0.65094700     0.13400
N1762       N  0.29249443  0.50711318  0.61279698    -0.82300
H1763       H  0.17287211  0.55476474  0.60636357     0.18300
N1764       N  0.16421477  0.57258636  0.64394890    -0.80900
H1765       H  0.28435641  0.47351791  0.62029985     0.33900
H1766       H  0.33126209  0.53622024  0.61600644     0.38400
H1767       H  0.12593852  0.54535510  0.63937840     0.33900
H1768       H  0.16454992  0.57429694  0.65942664     0.30600
H1769       H  0.15001719  0.43228648  0.68726904     0.33900
H1770       H  0.20165288  0.45208391  0.67304115     0.30600
H1771       H  0.27498713  0.68913205  0.69611103     0.38400
H1772       H  0.32234851  0.68089203  0.70497588     0.33900
C1773       C  0.10041040  0.64608826  0.70097372    -0.19800
C1774       C  0.12629415  0.69556885  0.69213519     0.36400
C1775       C  0.12227897  0.69935691  0.67149640    -0.25800
C1776       C  0.08997901  0.65507380  0.65931528     0.02800
C1777       C  0.06120128  0.60579529  0.66841474     0.27600
C1778       C  0.06636664  0.60187838  0.68901078    -0.24900
N1779       N  0.15516121  0.74223638  0.70411169    -0.82300
H1780       H  0.14445734  0.73741668  0.66500175     0.13400
C1781       C  0.08343514  0.66158239  0.63759047     0.02800
N1782       N  0.02606638  0.55957521  0.65693004    -0.80900
H1783       H  0.04394642  0.56365689  0.69561392     0.18200
C1784       C  0.08458063  0.62841181  0.62308398    -0.25700
C1785       C  0.07229322  0.63054487  0.60288991     0.36300
C1786       C  0.05802299  0.66600917  0.59734949    -0.19800
C1787       C  0.06305988  0.70283305  0.61124647    -0.25000
C1788       C  0.07429753  0.70020052  0.63118457     0.27700
H1789       H  0.09452570  0.60058877  0.62751131     0.13400
N1790       N  0.07620422  0.59863614  0.58803663    -0.82300
H1791       H  0.05326024  0.73094725  0.60691964     0.18300
N1792       N  0.07254249  0.73484513  0.64503873    -0.80900
H1793       H  0.54921212  0.56181407  0.59568065     0.33900
H1794       H  0.55919934  0.60202539  0.57679666     0.38400
H1795       H  0.09942582  0.77302678  0.64052610     0.33900
H1796       H  0.03540996  0.72851430  0.64389241     0.30600
H1797       H  0.03823337  0.53343640  0.65831709     0.33900
H1798       H  0.98923395  0.54212248  0.66310887     0.30600
H1799       H  0.19279301  0.76413643  0.69877229     0.38400
H1800       H  0.13831927  0.76416540  0.70205489     0.33900
C1801       C  0.41738003  0.59285385  0.79431550    -0.19800
C1802       C  0.44120874  0.58007423  0.80932980     0.36400
C1803       C  0.44541552  0.59903808  0.82869155    -0.25800
C1804       C  0.42542982  0.62990130  0.83354709     0.02800
C1805       C  0.40701354  0.64745194  0.81802327     0.27600
C1806       C  0.40368971  0.62905005  0.79854203    -0.24900
N1807       N  0.45776007  0.54483949  0.80537126    -0.82300
H1808       H  0.46308350  0.58814005  0.84010802     0.13400
C1809       C  0.42376551  0.64254424  0.85484730     0.02800
N1810       N  0.38976414  0.68211632  0.82209226    -0.80900
H1811       H  0.38793286  0.64100697  0.78676039     0.18200
C1812       C  0.43925226  0.69367416  0.86063292    -0.25700
C1813       C  0.44340973  0.70774891  0.88058906     0.36300
C1814       C  0.43568714  0.67135596  0.89509413    -0.19800
C1815       C  0.41400306  0.61895899  0.88973814    -0.25000
C1816       C  0.40783777  0.60400762  0.86966376     0.27700
H1817       H  0.45074476  0.72371562  0.84977866     0.13400
N1818       N  0.93849291  0.74714125  0.88503876    -0.82300
H1819       H  0.40666171  0.59084572  0.90115009     0.18300
N1820       N  0.38763314  0.55039411  0.86431576    -0.80900
H1821       H  0.97317112  0.76733406  0.89339614     0.33900
H1822       H  0.90883123  0.74285002  0.89398951     0.38400
H1823       H  0.37636119  0.52701484  0.87690974     0.33900
H1824       H  0.35407315  0.53756635  0.85572914     0.30600
H1825       H  0.37722606  0.69085099  0.80903460     0.33900
H1826       H  0.35814719  0.66275223  0.83150360     0.30600
H1827       H  0.45379619  0.00568698  0.82355255     0.38400
H1828       H  0.49737584  0.56407489  0.80912792     0.33900
C1829       C  0.27283704  0.88263270  0.79363975    -0.19800
C1830       C  0.27000676  0.91519054  0.80786850     0.36400
C1831       C  0.26062500  0.90012924  0.82757167    -0.25800
C1832       C  0.24994426  0.85136273  0.83333933     0.02800
C1833       C  0.24283319  0.81465476  0.81849424     0.27600
C1834       C  0.25751463  0.83162719  0.79881278    -0.24900
N1835       N  0.28007392  0.96542078  0.80264458    -0.82300
H1836       H  0.26614003  0.92849595  0.83871657     0.13400
C1837       C  0.25606849  0.84427876  0.85481860     0.02800
N1838       N  0.22010904  0.76072993  0.82330628    -0.80900
H1839       H  0.25668609  0.80533082  0.78763518     0.18200
C1840       C  0.21403622  0.80549689  0.86557944    -0.25700
C1841       C  0.21957775  0.79955974  0.88602424     0.36300
C1842       C  0.26947646  0.82859235  0.89508121    -0.19800
C1843       C  0.31102016  0.86865291  0.88462316    -0.25000
C1844       C  0.30428518  0.87843413  0.86485517     0.27700
H1845       H  0.17694843  0.78054110  0.85808301     0.13400
N1846       N  0.17488278  0.76557492  0.89770980    -0.82300
H1847       H  0.34896433  0.89193151  0.89189818     0.18300
N1848       N  0.34578909  0.92366385  0.85516181    -0.80900
H1849       H  0.14163963  0.74514644  0.88858360     0.33900
H1850       H  0.17976591  0.73762672  0.90448694     0.38400
H1851       H  0.37942420  0.94275802  0.86419728     0.33900
H1852       H  0.35509373  0.91188746  0.84221502     0.30600
H1853       H  0.21987100  0.73961335  0.81094074     0.33900
H1854       H  0.24338530  0.75891762  0.83422178     0.30600
H1855       H  0.31075595  0.99349062  0.81172915     0.38400
H1856       H  0.24692880  0.96585589  0.80585625     0.33900
C1857       C  0.44300109  0.62775762  0.60023302    -0.19800
C1858       C  0.44431548  0.59005969  0.61169840     0.36400
C1859       C  0.43788933  0.59042339  0.63190407    -0.25800
C1860       C  0.41582581  0.61644290  0.64030324     0.02800
C1861       C  0.40655508  0.64843747  0.62817470     0.27600
C1862       C  0.42310163  0.65616296  0.60838215    -0.24900
N1863       N  0.44918273  0.54932266  0.60322134    -0.82300
H1864       H  0.44774250  0.56745940  0.64093245     0.13400
C1865       C  0.39997291  0.60498655  0.66128357     0.02800
N1866       N  0.38060186  0.67250354  0.63582290    -0.80900
H1867       H  0.42071496  0.68429171  0.59935600     0.18200
C1868       C  0.41292929  0.64492647  0.67554213    -0.25700
C1869       C  0.41095264  0.63432804  0.69609476     0.36300
C1870       C  0.39918672  0.58450238  0.70176903    -0.19800
C1871       C  0.38293215  0.54522982  0.68762160    -0.25000
C1872       C  0.38010316  0.55378818  0.66784424     0.27700
H1873       H  0.42761894  0.68444881  0.67083215     0.13400
N1874       N  0.42337072  0.67396820  0.71086744    -0.82300
H1875       H  0.37093454  0.50650502  0.69202788     0.18300
N1876       N  0.35955593  0.51022035  0.65430507    -0.80900
H1877       H  0.43179364  0.70853530  0.70405728     0.33900
H1878       H  0.39001608  0.66108274  0.71915590     0.38400
H1879       H  0.38239856  0.49442286  0.65610432     0.33900
H1880       H  0.32193610  0.48185669  0.65859496     0.30600
H1881       H  0.37660310  0.69426220  0.62478529     0.33900
H1882       H  0.34294129  0.64254804  0.63946535     0.30600
H1883       H  0.94686680  0.54425254  0.58150486     0.38400
H1884       H  0.47891490  0.54860594  0.61070966     0.33900
C1885       C  0.26258407  0.81199304  0.59521207    -0.19800
C1886       C  0.22580477  0.78079899  0.60946153     0.36400
C1887       C  0.23418862  0.79717367  0.62936094    -0.25800
C1888       C  0.27748861  0.84627281  0.63538414     0.02800
C1889       C  0.31213392  0.87929078  0.62064025     0.27600
C1890       C  0.30430367  0.86191442  0.60076024    -0.24900
N1891       N  0.17961797  0.73207761  0.60391964    -0.82300
H1892       H  0.20727090  0.77057879  0.64018074     0.13400
C1893       C  0.28578243  0.86208713  0.65695703     0.02800
N1894       N  0.35575112  0.93036087  0.62567957    -0.80900
H1895       H  0.33241205  0.88649146  0.58980190     0.18200
C1896       C  0.33541894  0.88449029  0.66585089    -0.25700
C1897       C  0.34478295  0.90080641  0.68585004     0.36300
C1898       C  0.30333460  0.89281801  0.69773925    -0.19800
C1899       C  0.25394545  0.87096936  0.68891686    -0.25000
C1900       C  0.24472484  0.85544324  0.66876406     0.27700
H1901       H  0.36746096  0.88958220  0.65724919     0.13400
N1902       N  0.39710960  0.92795010  0.69368423    -0.82300
H1903       H  0.22244106  0.86639908  0.69775224     0.18300
N1904       N  0.19378177  0.83371943  0.66018408    -0.80900
H1905       H  0.41175229  0.90414504  0.69155119     0.33900
H1906       H  0.41961479  0.96174817  0.68538727     0.38400
H1907       H  0.16900250  0.83451089  0.67046919     0.33900
H1908       H  0.19704529  0.85724751  0.64841482     0.30600
H1909       H  0.38955272  0.93227515  0.62147102     0.33900
H1910       H  0.35238218  0.95732689  0.61729732     0.30600
H1911       H  0.16048528  0.74000307  0.59287406     0.38400
H1912       H  0.18948718  0.70716140  0.59765590     0.33900
O1913       O  0.83474758  0.28523748  0.98528613    -0.80900
O1914       O  0.83194625  0.12254237  0.04039035    -0.65500
O1915       O  0.86812813  0.22573379  0.00067094    -1.12200
C1916       C  0.78309358  0.06128291  0.96731100     1.06000
O1917       O  0.82674554  0.05873149  0.01991924    -0.78800
O1918       O  0.92005991  0.14655909  0.97850160    -0.66300
Ni1919     Ni  0.87639365  0.28682294  0.00794563     1.34900
C1920       C  0.92571586  0.18357025  0.96763666     0.84800
O1921       O  0.92487202  0.21405792  0.02679088    -0.79300
O1922       O  0.92344646  0.28851361  0.02953316    -0.89600
C1923       C  0.82012303  0.07449872  0.03671229     0.84300
O1924       O  0.81471087  0.25766608  0.02444165    -0.67800
O1925       O  0.81412202  0.05530735  0.97877640    -0.87100
C1926       C  0.77736788  0.21054520  0.02772762     0.85200
C1927       C  0.94513907  0.26185808  0.03344689     1.06700
H1928       H  0.79741043  0.10701157  0.00357642     0.38500
O1929       O  0.83336096  0.13421692  0.00140831    -1.09700
O1930       O  0.89083332  0.19464045  0.96729051    -0.66400
Ni1931     Ni  0.82724520  0.17178594  0.98202692     1.26300
O1932       O  0.78187850  0.17121174  0.02336691    -0.66600
O1933       O  0.78638773  0.10629293  0.96568802    -0.78900
C1934       C  0.81932959  0.25938668  0.96866235     0.84600
O1935       O  0.81674412  0.21600648  0.96514647    -0.66100
Ni1936     Ni  0.86944074  0.10151007  0.99853930     1.27400
Ni1937     Ni  0.85133977  0.18208521  0.02273249     1.26100
H1938       H  0.90313323  0.23784269  0.99696648     0.39100
O1939       O  0.79470241  0.04626353  0.48248528    -0.80900
O1940       O  0.78576277  0.18309248  0.52234502    -0.65500
O1941       O  0.82446153  0.12862836  0.50322662    -1.12200
C1942       C  0.94533893  0.27970198  0.46793438     1.06000
O1943       O  0.83001408  0.27084689  0.51900135    -0.78800
O1944       O  0.83421859  0.26835456  0.47905019    -0.66300
Ni1945     Ni  0.84552605  0.07929407  0.50289494     1.34900
C1946       C  0.80052030  0.22445073  0.47104243     0.84800
O1947       O  0.80285638  0.10983879  0.54166067    -0.79300
O1948       O  0.79671904  0.04220733  0.52378476    -0.89600
C1949       C  0.79065289  0.22804485  0.52529523     0.84300
O1950       O  0.90393775  0.10852134  0.52146671    -0.67800
O1951       O  0.94138695  0.30690174  0.48174400    -0.87100
C1952       C  0.92894940  0.15079023  0.53140127     0.85200
C1953       C  0.78437332  0.05952947  0.53872699     1.06700
H1954       H  0.91935457  0.23789724  0.50762065     0.38500
O1955       O  0.88320019  0.22531027  0.50507378    -1.09700
O1956       O  0.80331991  0.18372975  0.47388580    -0.66400
Ni1957     Ni  0.86208799  0.17677788  0.48343250     1.26300
O1958       O  0.91048075  0.17945105  0.53301576    -0.66600
O1959       O  0.91083369  0.23019798  0.46514375    -0.78900
C1960       C  0.80808391  0.06731997  0.46559009     0.84600
O1961       O  0.83730670  0.11841383  0.46381334    -0.66100
Ni1962     Ni  0.88499115  0.28767060  0.50042137     1.27400
Ni1963     Ni  0.84504243  0.17421894  0.52552618     1.26100
H1964       H  0.78742097  0.11181704  0.50074266     0.39100
O1965       O  0.85107714  0.03280267  0.76872956    -0.74400
O1966       O  0.79324054  0.44156650  0.72409392    -0.74400
O1967       O  0.78291503  0.43502678  0.76481192    -0.74500
O1968       O  0.85960709  0.03649596  0.72880662    -0.74500
O1969       O  0.92511580  0.02374897  0.73086248    -0.74500
O1970       O  0.84798808  0.42208011  0.76815920    -0.74400
O1971       O  0.85627759  0.42580685  0.72715132    -0.74400
O1972       O  0.91712692  0.02136375  0.77154737    -0.74500
Ni1973     Ni  0.82008806  0.48978143  0.74644740     1.25400
Ni1974     Ni  0.88910657  0.47462659  0.74880067     1.25400
C1975       C  0.89254145  0.04180904  0.77778926     0.87800
C1976       C  0.81861466  0.42241567  0.71710981     0.87700
C1977       C  0.80485429  0.41505394  0.77401906     0.87700
C1978       C  0.90187174  0.04356783  0.72232883     0.87900
O1979       O  0.63764147  0.05783172  0.73226846    -0.74400
O1980       O  0.57910120  0.09932642  0.77297717    -0.74400
O1981       O  0.58036488  0.09997192  0.73183020    -0.74500
O1982       O  0.63528486  0.05487238  0.77250937    -0.74500
O1983       O  0.70679498  0.13523703  0.77529520    -0.74500
O1984       O  0.65400404  0.17874746  0.73248486    -0.74400
O1985       O  0.65119457  0.17965869  0.77343657    -0.74400
O1986       O  0.71131374  0.13660314  0.73545769    -0.74500
Ni1987     Ni  0.60527423  0.07516462  0.75241849     1.25400
Ni1988     Ni  0.68322170  0.16047247  0.75423793     1.25400
C1989       C  0.68351509  0.09230783  0.72659321     0.87800
C1990       C  0.60730054  0.14568417  0.78063072     0.87700
C1991       C  0.61025047  0.14473841  0.72399042     0.87700
C1992       C  0.67886490  0.08769333  0.78099827     0.87900
O1993       O  0.51570977  0.43298110  0.76995182    -0.74400
O1994       O  0.89450197  0.34137110  0.72479235    -0.74400
O1995       O  0.89641659  0.34864457  0.76530734    -0.74500
O1996       O  0.51626114  0.42970814  0.72798973    -0.74500
O1997       O  0.52079054  0.35905412  0.72983305    -0.74500
O1998       O  0.90440616  0.27989229  0.76766493    -0.74400
O1999       O  0.90084800  0.27171957  0.72722862    -0.74400
O2000       O  0.51978918  0.36198051  0.77039423    -0.74500
Ni2001     Ni  0.94704788  0.37920898  0.74538494     1.25400
Ni2002     Ni  0.95433415  0.30487378  0.74710741     1.25400
C2003       C  0.52909460  0.40432569  0.77872464     0.87800
C2004       C  0.88251142  0.29592940  0.71856285     0.87700
C2005       C  0.88752498  0.30766838  0.77421276     0.87700
C2006       C  0.53026794  0.40011660  0.72068854     0.87900
C2007       C  0.97029096  0.15768733  0.54631248     0.02300
C2008       C  0.52578631  0.18379129  0.54546324     0.02300
C2009       C  0.55515329  0.18558188  0.56227504    -0.18200
C2010       C  0.53212169  0.16355147  0.58019956     0.02300
C2011       C  0.97662295  0.13430563  0.58058901     0.02300
C2012       C  0.94736651  0.13343622  0.56431415    -0.18200
H2013       H  0.90557735  0.11401042  0.56596098     0.04300
H2014       H  0.59727558  0.20609950  0.56167356     0.04300
C2015       C  0.70773765  0.46245711  0.55222165     0.02300
C2016       C  0.74886742  0.02018547  0.55427839     0.02300
C2017       C  0.75104005  0.04444711  0.57245645    -0.18200
C2018       C  0.72189176  0.01653742  0.58861560     0.02300
C2019       C  0.67375881  0.46135257  0.58536089     0.02300
C2020       C  0.67226075  0.43610214  0.56772520    -0.18200
H2021       H  0.64204332  0.39487418  0.56616847     0.04300
H2022       H  0.77639540  0.08656253  0.57450171     0.04300
C2023       C  0.81014318  0.28348008  0.95123781     0.02300
C2024       C  0.78489755  0.31204411  0.95088800     0.02300
C2025       C  0.78186297  0.33347758  0.93274822    -0.18200
C2026       C  0.80012806  0.32517543  0.91520150     0.02300
C2027       C  0.82253080  0.29505942  0.91557608     0.02300
C2028       C  0.82897045  0.27641083  0.93336123    -0.18200
H2029       H  0.84766254  0.25447875  0.93298600     0.04300
H2030       H  0.76401562  0.35617324  0.93207247     0.04300
C2031       C  0.74375707  0.27291558  0.53931099     0.02300
C2032       C  0.75819633  0.23431494  0.54056753     0.02300
C2033       C  0.76591498  0.22063149  0.55979870    -0.18200
C2034       C  0.76930375  0.24952465  0.57678683     0.02300
C2035       C  0.76589258  0.29385398  0.57473519     0.02300
C2036       C  0.75236496  0.30447171  0.55628996    -0.18200
H2037       H  0.74399798  0.33494912  0.55572737     0.04300
H2038       H  0.77515064  0.19093946  0.56144285     0.04300
C2039       C  0.74773015  0.01739009  0.95248086     0.02300
C2040       C  0.69197856  0.46495475  0.95405038     0.02300
C2041       C  0.65928110  0.44865262  0.93692913    -0.18200
C2042       C  0.67760822  0.47128481  0.91840549     0.02300
C2043       C  0.72934849  0.01296409  0.91669123     0.02300
C2044       C  0.76390749  0.03338971  0.93296897    -0.18200
H2045       H  0.80394461  0.06465057  0.93049677     0.04300
H2046       H  0.61966686  0.41482888  0.93757699     0.04300
C2047       C  0.51631438  0.22746972  0.95110161     0.02300
C2048       C  0.96451360  0.20370084  0.95071836     0.02300
C2049       C  0.93692886  0.18329262  0.93243859    -0.18200
C2050       C  0.96092854  0.18270142  0.91514141     0.02300
C2051       C  0.50773779  0.19562660  0.91641080     0.02300
C2052       C  0.53798836  0.22282731  0.93325728    -0.18200
H2053       H  0.57972418  0.24221472  0.93186026     0.04300
H2054       H  0.89502883  0.16518953  0.93166515     0.04300
O2055       O  0.67483064  0.22630426  0.47616622    -0.80900
O2056       O  0.66714585  0.37621688  0.53514911    -0.65500
O2057       O  0.62256551  0.27153444  0.49226810    -1.12200
C2058       C  0.72326746  0.43796397  0.46063926     1.06000
O2059       O  0.71409835  0.44938923  0.51749484    -0.78800
O2060       O  0.60825644  0.39440795  0.47753071    -0.66300
Ni2061     Ni  0.62055277  0.20858423  0.49528606     1.34900
C2062       C  0.58077107  0.35141096  0.46830881     0.84800
O2063       O  0.59412243  0.26358693  0.53190923    -0.79300
O2064       O  0.56520043  0.18801945  0.51448546    -0.89600
C2065       C  0.69773588  0.42762990  0.53411959     0.84300
O2066       O  0.67202434  0.22719701  0.51611143    -0.67800
O2067       O  0.71371435  0.45571415  0.47617818    -0.87100
C2068       C  0.70460667  0.27083392  0.52449659     0.85200
C2069       C  0.56110396  0.21386816  0.52880328     1.06700
H2070       H  0.71901822  0.38359268  0.49790295     0.38500
O2071       O  0.68225481  0.36820742  0.49532669    -1.13500
O2072       O  0.59600140  0.32020499  0.46672394    -0.66400
Ni2073     Ni  0.66072835  0.32372250  0.47254677     1.26300
O2074       O  0.70067676  0.31097023  0.52270146    -0.66600
O2075       O  0.70215230  0.38776713  0.45685513    -0.78900
C2076       C  0.71489591  0.26948418  0.47053248     0.84600
O2077       O  0.72001823  0.31423302  0.47431809    -0.66100
Ni2078     Ni  0.66425517  0.41961564  0.49662098     1.27400
Ni2079     Ni  0.64289683  0.31884270  0.51437798     1.26100
H2080       H  0.58632476  0.25878521  0.48979884     0.39100
O2081       O  0.55025306  0.30701614  0.01955054    -0.80900
O2082       O  0.71753799  0.31986347  0.96370420    -0.65500
O2083       O  0.62913902  0.32278452  0.00049397    -1.12200
C2084       C  0.75323995  0.43817495  0.03299343     1.06000
O2085       O  0.78259295  0.33254526  0.98511194    -0.78800
O2086       O  0.75528056  0.30992153  0.02427320    -0.66300
Ni2087     Ni  0.58903904  0.35152034  0.99776605     1.34900
C2088       C  0.70899329  0.27082393  0.02734966     0.84800
O2089       O  0.60650096  0.28142144  0.96375924    -0.79300
O2090       O  0.54628238  0.29394323  0.97802872    -0.89600
C2091       C  0.75962925  0.32076985  0.96786185     0.84300
O2092       O  0.62947928  0.40435443  0.97770599    -0.67800
O2093       O  0.78186174  0.41853748  0.02954353    -0.87100
C2094       C  0.67176264  0.41962419  0.96865846     0.85200
C2095       C  0.55826128  0.26922038  0.96564014     1.06700
H2096       H  0.73297147  0.39812116  0.99703285     0.38500
O2097       O  0.72133152  0.36265596  0.00038030    -1.09700
O2098       O  0.66897254  0.27368386  0.02273668    -0.66400
Ni2099     Ni  0.67690585  0.34243314  0.02208665     1.26300
O2100       O  0.69017304  0.39051703  0.96825748    -0.66600
O2101       O  0.70556805  0.41565092  0.02612376    -0.78900
C2102       C  0.56889426  0.30479260  0.03653068     0.84600
O2103       O  0.61784683  0.32026518  0.03977620    -0.66100
Ni2104     Ni  0.78259732  0.37278582  0.00791835     1.27400
Ni2105     Ni  0.66984851  0.32347848  0.98089404     1.26100
H2106       H  0.60466319  0.28570961  0.00229270     0.39100
O2107       O  0.99354412  0.22637357  0.23201470    -0.74400
O2108       O  0.61112523  0.23336114  0.26944237    -0.74400
O2109       O  0.59614110  0.22176267  0.22803610    -0.74500
O2110       O  0.00361883  0.22736421  0.27351947    -0.74500
O2111       O  0.96730779  0.14083704  0.27235401    -0.74500
O2112       O  0.58088729  0.14147198  0.22948479    -0.74400
O2113       O  0.59480009  0.15249704  0.27117334    -0.74400
O2114       O  0.95757210  0.13985126  0.23173427    -0.74500
Ni2115     Ni  0.55376907  0.21133599  0.25042137     1.25400
Ni2116     Ni  0.53716211  0.12506824  0.25227376     1.25400
C2117       C  0.96120303  0.18057817  0.22448940     0.87800
C2118       C  0.61872313  0.19988243  0.27782291     0.87700
C2119       C  0.59637424  0.18370381  0.21979050     0.87700
C2120       C  0.97403197  0.18190822  0.28099217     0.87900
O2121       O  0.80695815  0.36848777  0.27159328    -0.74400
O2122       O  0.86173467  0.32875164  0.23017840    -0.74400
O2123       O  0.87377012  0.33749502  0.27017298    -0.74500
O2124       O  0.79577228  0.35921874  0.23243433    -0.74500
O2125       O  0.86270282  0.44134443  0.22834301    -0.74500
O2126       O  0.93899787  0.42109853  0.26879715    -0.74400
O2127       O  0.92930730  0.41096581  0.22800869    -0.74400
O2128       O  0.87148994  0.45205010  0.26816686    -0.74500
Ni2129     Ni  0.83252739  0.34555427  0.25128120     1.25400
Ni2130     Ni  0.90335542  0.43449733  0.24831857     1.25400
C2131       C  0.82998001  0.41684593  0.27656339     0.87800
C2132       C  0.90132999  0.36415310  0.22092460     0.87700
C2133       C  0.91737048  0.37600887  0.27681980     0.87700
C2134       C  0.81769856  0.40222017  0.22314775     0.87900
C2135       C  0.79652078  0.03281040  0.44761037     0.02300
C2136       C  0.75971900  0.47689353  0.44566337     0.02300
C2137       C  0.75761444  0.45410794  0.42724700    -0.18200
C2138       C  0.78811200  0.48342776  0.41165372     0.02300
C2139       C  0.82565629  0.03712574  0.41346488     0.02300
C2140       C  0.83132671  0.05959624  0.43207130    -0.18200
H2141       H  0.86415123  0.09937815  0.43432768     0.04300
H2142       H  0.73024130  0.41260118  0.42439072     0.04300
O2143       O  0.67180713  0.49765376  0.27322690    -0.74400
O2144       O  0.71825300  0.07086110  0.22914263    -0.74400
O2145       O  0.71479817  0.08358982  0.27043645    -0.74500
O2146       O  0.67379068  0.49018500  0.23251756    -0.74500
O2147       O  0.59597247  0.48011143  0.23047503    -0.74500
O2148       O  0.63788810  0.07472823  0.26610002    -0.74400
O2149       O  0.64049918  0.06053421  0.22528871    -0.74400
O2150       O  0.59445387  0.48892011  0.27090035    -0.74500
Ni2151     Ni  0.69644520  0.02666576  0.25179013     1.25400
Ni2152     Ni  0.61343875  0.01651860  0.24835628     1.25400
C2153       C  0.62676808  0.48102062  0.28006213     0.87800
C2154       C  0.68591061  0.07604881  0.21877179     0.87700
C2155       C  0.68019739  0.09254878  0.27616598     0.87700
C2156       C  0.62867591  0.46976310  0.22409935     0.87900
C2157       C  0.76925965  0.47409264  0.05074557     0.02300
C2158       C  0.80183354  0.03685323  0.05340086     0.02300
C2159       C  0.82068325  0.06106027  0.07226070    -0.18200
C2160       C  0.80995609  0.03221616  0.08949816     0.02300
C2161       C  0.77691125  0.47142465  0.08666784     0.02300
C2162       C  0.75865540  0.44602853  0.06839543    -0.18200
H2163       H  0.73650721  0.40344343  0.06796667     0.04300
H2164       H  0.84606642  0.10334116  0.07367678     0.04300
C2165       C  0.76062406  0.22347093  0.45628576     0.02300
C2166       C  0.74942424  0.26465672  0.45561416     0.02300
C2167       C  0.74682396  0.28309563  0.43655635    -0.18200
C2168       C  0.74049712  0.25417222  0.41907677     0.02300
C2169       C  0.73262108  0.20384716  0.42077540     0.02300
C2170       C  0.74681602  0.19085180  0.43896787    -0.18200
H2171       H  0.75011603  0.15703701  0.43924175     0.04300
H2172       H  0.74355894  0.31686445  0.43538552     0.04300
C2173       C  0.70243956  0.22630708  0.04039899     0.02300
C2174       C  0.73376509  0.20248621  0.04111184     0.02300
C2175       C  0.73012219  0.17370971  0.05823978    -0.18200
C2176       C  0.70038419  0.16942048  0.07457317     0.02300
C2177       C  0.66659402  0.18750582  0.07318171     0.02300
C2178       C  0.66713175  0.21428718  0.05610212    -0.18200
H2179       H  0.64405389  0.23167927  0.05635395     0.04300
H2180       H  0.75524851  0.15879311  0.05991231     0.04300
C2181       C  0.98398222  0.30784609  0.45170393     0.02300
C2182       C  0.53785329  0.34397308  0.45474421     0.02300
C2183       C  0.55875180  0.37489668  0.43775241    -0.18200
C2184       C  0.53524189  0.35633823  0.41905500     0.02300
C2185       C  0.98685539  0.32797123  0.41637459     0.02300
C2186       C  0.95907996  0.30684988  0.43368552    -0.18200
H2187       H  0.91717048  0.28867002  0.43296034     0.04300
H2188       H  0.59666824  0.41129560  0.43864897     0.04300
C2189       C  0.98264446  0.28154559  0.05100316     0.02300
C2190       C  0.53351496  0.28626871  0.05392923     0.02300
C2191       C  0.55990305  0.30271316  0.07249131    -0.18200
C2192       C  0.53366942  0.29060602  0.09021041     0.02300
C2193       C  0.98610431  0.30321641  0.08627890     0.02300
C2194       C  0.96003332  0.28739155  0.06802238    -0.18200
H2195       H  0.92080097  0.27939085  0.06717477     0.04300
H2196       H  0.60191432  0.32897654  0.07338848     0.04300
C2197       C  0.61584057  0.46018704  0.30029958    -0.19800
C2198       C  0.56610006  0.41983549  0.30591950     0.36400
C2199       C  0.55581555  0.40792896  0.32610477    -0.25800
C2200       C  0.59448451  0.43672048  0.34077088     0.02800
C2201       C  0.64406047  0.47813408  0.33512710     0.27600
C2202       C  0.65479738  0.48816045  0.31493988    -0.24900
N2203       N  0.52614646  0.39126990  0.29112924    -0.82300
H2204       H  0.51767044  0.37633935  0.33035403     0.13400
C2205       C  0.58326055  0.42260428  0.36190454     0.02800
N2206       N  0.68199619  0.51219511  0.34992340    -0.80900
H2207       H  0.69266640  0.52079685  0.31070815     0.18200
C2208       C  0.60882082  0.40170767  0.37164549    -0.25700
C2209       C  0.59838561  0.38598475  0.39137029     0.36300
C2210       C  0.55919804  0.38811664  0.40123937    -0.19800
C2211       C  0.53505104  0.41101843  0.39185158    -0.25000
C2212       C  0.54740818  0.42905111  0.37234456     0.27700
H2213       H  0.63590400  0.39610428  0.36365539     0.13400
N2214       N  0.62633566  0.36581275  0.40077715    -0.82300
H2215       H  0.50485273  0.41269199  0.39937489     0.18300
N2216       N  0.52341938  0.45361532  0.36321712    -0.80900
H2217       H  0.59998541  0.32738775  0.40514900     0.33900
H2218       H  0.64481038  0.38848230  0.41356147     0.38400
H2219       H  0.48311253  0.42800586  0.36387156     0.33900
H2220       H  0.53350251  0.48684186  0.37175966     0.30600
H2221       H  0.71583565  0.54203649  0.34333514     0.33900
H2222       H  0.66668714  0.53036679  0.35787004     0.30600
H2223       H  0.51104588  0.35131919  0.29284412     0.38400
H2224       H  0.49683303  0.39813438  0.29383972     0.33900
C2225       C  0.61588672  0.43951725  0.20520068    -0.19800
C2226       C  0.64654639  0.42153257  0.19793878     0.36400
C2227       C  0.63933327  0.40339092  0.17815407    -0.25800
C2228       C  0.60106934  0.40136326  0.16539738     0.02800
C2229       C  0.56674997  0.41411315  0.17366963     0.27600
C2230       C  0.57536534  0.43416123  0.19307950    -0.24900
N2231       N  0.68430677  0.42093352  0.21073227    -0.82300
H2232       H  0.66343850  0.38992003  0.17297195     0.13400
C2233       C  0.59252632  0.37859570  0.14469073     0.02800
N2234       N  0.52050581  0.40286447  0.16317429    -0.80900
H2235       H  0.54983148  0.44576510  0.19860371     0.18200
C2236       C  0.59925589  0.33674758  0.14097183    -0.25700
C2237       C  0.58588451  0.31051541  0.12248742     0.36300
C2238       C  0.56159021  0.32372113  0.10787458    -0.19800
C2239       C  0.55855481  0.36744483  0.11082034    -0.25000
C2240       C  0.57558809  0.39604881  0.12863752     0.27700
H2241       H  0.61332684  0.32297993  0.15262405     0.13400
N2242       N  0.04253591  0.23093914  0.11195126    -0.82300
H2243       H  0.54234697  0.37936603  0.09915294     0.18300
N2244       N  0.57771136  0.44410197  0.12976298    -0.80900
H2245       H  0.00414001  0.21395341  0.10680564     0.33900
H2246       H  0.06545823  0.23559685  0.09981245     0.38400
H2247       H  0.60126994  0.46711689  0.11821575     0.33900
H2248       H  0.54038740  0.43605047  0.12660028     0.30600
H2249       H  0.48832525  0.37630475  0.17144859     0.33900
H2250       H  0.52094498  0.43754988  0.16241195     0.30600
H2251       H  0.66426733  0.39631270  0.22253530     0.38400
H2252       H  0.70100035  0.40340062  0.20337562     0.33900
C2253       C  0.68299589  0.11327039  0.29662134    -0.19800
C2254       C  0.72972087  0.15079454  0.30623964     0.36400
C2255       C  0.73043099  0.16049923  0.32681137    -0.25800
C2256       C  0.68679765  0.12998110  0.33880181     0.02800
C2257       C  0.63947564  0.09314360  0.32878433     0.27600
C2258       C  0.63779004  0.08683914  0.30796772    -0.24900
N2259       N  0.77645276  0.17892857  0.29518783    -0.82300
H2260       H  0.76578865  0.19130028  0.33367497     0.13400
C2261       C  0.69294451  0.13706760  0.36138620     0.02800
N2262       N  0.59370426  0.05845265  0.33952003    -0.80900
H2263       H  0.60130704  0.05686530  0.30094013     0.18200
C2264       C  0.65438177  0.13523727  0.37329124    -0.25700
C2265       C  0.66355780  0.14956034  0.39370172     0.36300
C2266       C  0.71318843  0.16789387  0.40266307    -0.19800
C2267       C  0.74915806  0.16420657  0.39142980    -0.25000
C2268       C  0.73912713  0.14798015  0.37129309     0.27700
H2269       H  0.61745699  0.12493746  0.36673141     0.13400
N2270       N  0.62202514  0.14625039  0.40475622    -0.82300
H2271       H  0.78749394  0.17950228  0.39775160     0.18300
N2272       N  0.77690076  0.14380158  0.36075963    -0.80900
H2273       H  0.61337126  0.17238069  0.39867710     0.33900
H2274       H  0.63305063  0.15724960  0.41961899     0.38400
H2275       H  0.81204406  0.18017819  0.36177875     0.33900
H2276       H  0.78080367  0.11529971  0.36759984     0.30600
H2277       H  0.56438291  0.06450107  0.33539771     0.33900
H2278       H  0.58074003  0.02050760  0.33460542     0.30600
H2279       H  0.79057371  0.21879803  0.29646658     0.38400
H2280       H  0.80389480  0.17254003  0.30162303     0.33900
C2281       C  0.69909342  0.09416721  0.19803935    -0.19800
C2282       C  0.70664926  0.14172806  0.19183237     0.36400
C2283       C  0.71369936  0.15457052  0.17142188    -0.25800
C2284       C  0.71153906  0.11937720  0.15704712     0.02800
C2285       C  0.70808498  0.07360716  0.16373837     0.27600
C2286       C  0.70194756  0.06144309  0.18404370    -0.24900
N2287       N  0.70582183  0.17603153  0.20630317    -0.82300
H2288       H  0.71797378  0.19071632  0.16661691     0.13400
C2289       C  0.71071847  0.12989256  0.13527103     0.02800
N2290       N  0.71088965  0.03926993  0.14996781    -0.80900
H2291       H  0.69746130  0.02514276  0.18879916     0.18200
C2292       C  0.75067477  0.17754290  0.12747099    -0.25700
C2293       C  0.75098898  0.18898033  0.10722497     0.36300
C2294       C  0.70963282  0.15284108  0.09430851    -0.19800
C2295       C  0.67069745  0.10468917  0.10188094    -0.25000
C2296       C  0.67056357  0.09304425  0.12208303     0.27700
H2297       H  0.78221884  0.20591866  0.13713503     0.13400
N2298       N  0.79399850  0.23740211  0.10014156    -0.82300
H2299       H  0.63862996  0.07684862  0.09222494     0.18300
N2300       N  0.62888281  0.04385970  0.12904630    -0.80900
H2301       H  0.81212887  0.22874955  0.08913878     0.33900
H2302       H  0.78009340  0.25885844  0.09367867     0.38400
H2303       H  0.59387243  0.04094613  0.12561825     0.33900
H2304       H  0.62898576  0.01438001  0.12095866     0.30600
H2305       H  0.74372718  0.03846784  0.15370898     0.33900
H2306       H  0.67842367  0.00169630  0.15208409     0.30600
H2307       H  0.73719487  0.18842941  0.21622322     0.38400
H2308       H  0.71173481  0.20913064  0.19929533     0.33900
C2309       C  0.96032964  0.32474901  0.39748709    -0.19800
C2310       C  0.95434059  0.36595764  0.39180567     0.36400
C2311       C  0.95029305  0.37407046  0.37147681    -0.25800
C2312       C  0.95474004  0.34318567  0.35705099     0.02800
C2313       C  0.96027167  0.30217210  0.36305155     0.27600
C2314       C  0.95881680  0.29068918  0.38307332    -0.24900
N2315       N  0.95357674  0.39982428  0.40662778    -0.82300
H2316       H  0.94512990  0.40519569  0.36688072     0.13400
C2317       C  0.95088008  0.35171853  0.33569427     0.02800
N2318       N  0.97047213  0.27399281  0.34881265    -0.80900
H2319       H  0.52575813  0.28240092  0.38468947     0.18200
C2320       C  0.98241209  0.40156108  0.32757737    -0.25700
C2321       C  0.97599981  0.41005948  0.30753640     0.36300
C2322       C  0.93809660  0.36806593  0.29547507    -0.19800
C2323       C  0.91052610  0.31764762  0.30332372    -0.25000
C2324       C  0.91488148  0.30967856  0.32333755     0.27700
H2325       H  0.01115077  0.43401420  0.33688307     0.13400
N2326       N  0.00783170  0.46118236  0.29958416    -0.82300
H2327       H  0.88166812  0.28444975  0.29435937     0.18300
N2328       N  0.87886567  0.25966218  0.33146008    -0.80900
H2329       H  0.04609853  0.47099642  0.30108957     0.33900
H2330       H  0.00362663  0.48724086  0.30827692     0.38400
H2331       H  0.84221357  0.25329170  0.32900020     0.33900
H2332       H  0.88098881  0.23118219  0.32349888     0.30600
H2333       H  0.54064117  0.29144010  0.35129257     0.33900
H2334       H  0.94035051  0.23489723  0.34960897     0.30600
H2335       H  0.98984259  0.42019456  0.41395759     0.38400
H2336       H  0.94874296  0.42800033  0.39993174     0.33900
C2337       C  0.90961291  0.35315336  0.20036870    -0.19800
C2338       C  0.87186720  0.30633882  0.19028700     0.36400
C2339       C  0.87220460  0.30369466  0.16956700    -0.25800
C2340       C  0.91516542  0.34130563  0.15897116     0.02800
C2341       C  0.95288484  0.38825369  0.16891899     0.27600
C2342       C  0.94902263  0.39419183  0.18933782    -0.24900
N2343       N  0.83331505  0.26144829  0.20096617    -0.82300
H2344       H  0.83985743  0.27055211  0.16180612     0.13400
C2345       C  0.92400401  0.32746070  0.13880082     0.02800
N2346       N  0.99605783  0.42958965  0.15864831    -0.80900
H2347       H  0.97756391  0.43107725  0.19656580     0.18200
C2348       C  0.94023285  0.36376948  0.12337721    -0.25700
C2349       C  0.95875885  0.35587830  0.10567286     0.36300
C2350       C  0.96017820  0.31037519  0.10316468    -0.19800
C2351       C  0.93964350  0.27213817  0.11762969    -0.25000
C2352       C  0.92209198  0.28013871  0.13536794     0.27700
H2353       H  0.94039347  0.39933690  0.12537672     0.13400
N2354       N  0.97751164  0.39530820  0.09081992    -0.82300
H2355       H  0.93902710  0.23640631  0.11536421     0.18300
N2356       N  0.90506701  0.24027049  0.14989518    -0.80900
H2357       H  0.95584148  0.37812208  0.07770929     0.33900
H2358       H  0.01638089  0.40871581  0.08816733     0.38400
H2359       H  0.92472186  0.25657063  0.16335361     0.33900
H2360       H  0.86533418  0.22232596  0.15184635     0.30600
H2361       H  0.02990760  0.43915614  0.16655358     0.33900
H2362       H  0.99316475  0.46233565  0.15936964     0.30600
H2363       H  0.80971087  0.23034296  0.19113649     0.38400
H2364       H  0.85300247  0.24897855  0.20978930     0.33900
C2365       C  0.81114089  0.43067023  0.29369066    -0.19800
C2366       C  0.84733084  0.46424615  0.30833051     0.36400
C2367       C  0.83072260  0.46192683  0.32748180    -0.25800
C2368       C  0.77894333  0.42678088  0.33231922     0.02800
C2369       C  0.74104069  0.39834134  0.31731123     0.27600
C2370       C  0.75771089  0.40046509  0.29784661    -0.24900
N2371       N  0.90163391  0.49735712  0.30430606    -0.82300
H2372       H  0.85890382  0.48583673  0.33894553     0.13400
C2373       C  0.76681920  0.42349451  0.35330818     0.02800
N2374       N  0.68684407  0.36614132  0.32200018    -0.80900
H2375       H  0.72983327  0.37528230  0.28636885     0.18200
C2376       C  0.74015703  0.44676587  0.35913538    -0.25700
C2377       C  0.74521071  0.46504728  0.37850861     0.36300
C2378       C  0.77543552  0.45754692  0.39229136    -0.19800
C2379       C  0.79601105  0.42775309  0.38730315    -0.25000
C2380       C  0.79406250  0.41243633  0.36766212     0.27700
H2381       H  0.72044864  0.45593845  0.34803961     0.13400
N2382       N  0.71350099  0.99387728  0.38473806    -0.82300
H2383       H  0.81816686  0.42109787  0.39826411     0.18300
N2384       N  0.82367908  0.39004906  0.36261964    -0.80900
H2385       H  0.73941917  0.03023567  0.39143191     0.33900
H2386       H  0.68830033  0.96908247  0.39558271     0.38400
H2387       H  0.81953279  0.37989534  0.34762054     0.33900
H2388       H  0.86303541  0.41854608  0.36532820     0.30600
H2389       H  0.66438123  0.34712340  0.30920304     0.33900
H2390       H  0.68213767  0.33691527  0.33153267     0.30600
H2391       H  0.92192348  0.48663968  0.31366211     0.38400
H2392       H  0.91336792  0.53579848  0.30800093     0.33900
C2393       C  0.76180387  0.44093035  0.10478048    -0.19800
C2394       C  0.72878806  0.44524604  0.11775071     0.36400
C2395       C  0.72850847  0.43281637  0.13761620    -0.25800
C2396       C  0.75919990  0.41442105  0.14441538     0.02800
C2397       C  0.78986158  0.40702877  0.13106452     0.27600
C2398       C  0.79022772  0.41956030  0.11112602    -0.24900
N2399       N  0.69991891  0.46733269  0.11096602    -0.82300
H2400       H  0.70730081  0.44119362  0.14795862     0.13400
C2401       C  0.76470805  0.40988930  0.16580274     0.02800
N2402       N  0.82378587  0.39106629  0.13805134    -0.80900
H2403       H  0.81650308  0.41751145  0.10109539     0.18200
C2404       C  0.75055899  0.36175840  0.17353407    -0.25700
C2405       C  0.76602069  0.35841183  0.19260558     0.36300
C2406       C  0.79357877  0.40379707  0.20468453    -0.19800
C2407       C  0.80410628  0.45155481  0.19757942    -0.25000
C2408       C  0.78944380  0.45453279  0.17815926     0.27700
H2409       H  0.72962402  0.32687757  0.16465341     0.13400
N2410       N  0.75671987  0.30938203  0.19909098    -0.82300
H2411       H  0.82518746  0.48676941  0.20678338     0.18300
N2412       N  0.80140968  0.50343354  0.17082004    -0.80900
H2413       H  0.71658126  0.28348092  0.19961083     0.33900
H2414       H  0.77134364  0.29562778  0.18847686     0.38400
H2415       H  0.84144430  0.52899516  0.17300612     0.33900
H2416       H  0.78210063  0.51540166  0.17985540     0.30600
H2417       H  0.81549919  0.35798696  0.12982660     0.33900
H2418       H  0.86206198  0.42103477  0.13511154     0.30600
H2419       H  0.67156774  0.44080258  0.10074305     0.38400
H2420       H  0.68062618  0.47160324  0.12272225     0.33900
C2421       C  0.85918281  0.07053974  0.39683152    -0.19800
C2422       C  0.85834919  0.11436826  0.39029380     0.36400
C2423       C  0.87931012  0.13650874  0.37195002    -0.25800
C2424       C  0.90383707  0.11812954  0.36032077     0.02800
C2425       C  0.91334213  0.08135694  0.36847875     0.27600
C2426       C  0.88993113  0.05687213  0.38642566    -0.24900
N2427       N  0.83652002  0.13732255  0.40183211    -0.82300
H2428       H  0.87681433  0.16862744  0.36678380     0.13400
C2429       C  0.92006567  0.13851789  0.33993362     0.02800
N2430       N  0.94716642  0.06943471  0.35872462    -0.80900
H2431       H  0.89510284  0.02658055  0.39207581     0.18200
C2432       C  0.97234819  0.17659873  0.33651459    -0.25700
C2433       C  0.98822972  0.19912523  0.31768891     0.36300
C2434       C  0.95323583  0.17649786  0.30123161    -0.19800
C2435       C  0.90043319  0.13982390  0.30475984    -0.25000
C2436       C  0.88323680  0.12338069  0.32420550     0.27700
H2437       H  0.00005274  0.19111870  0.34887697     0.13400
N2438       N  0.03918694  0.24537470  0.31537624    -0.82300
H2439       H  0.87268608  0.12354236  0.29240639     0.18300
N2440       N  0.82862832  0.09143500  0.32794711    -0.80900
H2441       H  0.05988078  0.25705778  0.32892122     0.33900
H2442       H  0.05988575  0.23656574  0.30585927     0.38400
H2443       H  0.80458814  0.59153642  0.32412036     0.33900
H2444       H  0.80835854  0.53873932  0.32003631     0.30600
H2445       H  0.92729560  0.02897090  0.35639140     0.33900
H2446       H  0.97863323  0.08006468  0.36838703     0.30600
H2447       H  0.85959590  0.15490065  0.41459459     0.38400
H2448       H  0.79888904  0.10840040  0.40589356     0.33900
C2449       C  0.93515138  0.17468582  0.20497709    -0.19800
C2450       C  0.88068121  0.14482443  0.20210180     0.36400
C2451       C  0.85894167  0.12903142  0.18269397    -0.25800
C2452       C  0.89093495  0.13857546  0.16634465     0.02800
C2453       C  0.94518055  0.17319552  0.16914168     0.27600
C2454       C  0.96662390  0.19055117  0.18825941    -0.24900
N2455       N  0.84747741  0.12901502  0.21883046    -0.82300
H2456       H  0.81706243  0.10542638  0.18066731     0.13400
C2457       C  0.86875387  0.10903721  0.14701932     0.02800
N2458       N  0.97927227  0.19187483  0.15270746    -0.80900
H2459       H  0.00856128  0.21485009  0.19013609     0.18200
C2460       C  0.83557773  0.11748976  0.13530562    -0.25700
C2461       C  0.81861329  0.09449860  0.11626473     0.36300
C2462       C  0.83216190  0.06027506  0.10895504    -0.19800
C2463       C  0.86464751  0.05094868  0.12060358    -0.25000
C2464       C  0.88180023  0.07339839  0.13968154     0.27700
H2465       H  0.82245928  0.14175258  0.14083972     0.13400
N2466       N  0.78697011  0.10542916  0.10419189    -0.82300
H2467       H  0.88001771  0.52583452  0.11099118     0.18300
N2468       N  0.91152506  0.05821519  0.15119057    -0.80900
H2469       H  0.80693021  0.14596418  0.10251988     0.33900
H2470       H  0.75256382  0.09195125  0.11163836     0.38400
H2471       H  0.95482569  0.57794068  0.13765106     0.33900
H2472       H  0.91999641  0.07446101  0.16549360     0.30600
H2473       H  0.97424898  0.16034505  0.14449470     0.33900
H2474       H  0.96844554  0.21194227  0.14344202     0.30600
H2475       H  0.82324536  0.14329699  0.21701314     0.38400
H2476       H  0.82398143  0.08807112  0.21861990     0.33900
C2477       C  0.64783241  0.21331970  0.29746038    -0.19800
C2478       C  0.62086333  0.18646105  0.31471291     0.36400
C2479       C  0.64248845  0.20720546  0.33363664    -0.25800
C2480       C  0.69364213  0.25012158  0.33634554     0.02800
C2481       C  0.72381888  0.27157275  0.31911699     0.27600
C2482       C  0.69976343  0.25567305  0.29992783    -0.24900
N2483       N  0.57200126  0.13704303  0.31323213    -0.82300
H2484       H  0.61979527  0.18760384  0.34652762     0.13400
C2485       C  0.71400386  0.26755688  0.35743416     0.02800
N2486       N  0.77879605  0.30812437  0.32092097    -0.80900
H2487       H  0.72214995  0.27533988  0.28695249     0.18200
C2488       C  0.76048556  0.27250647  0.36394412    -0.25700
C2489       C  0.77439100  0.27801960  0.38433051     0.36300
C2490       C  0.73923195  0.27386838  0.39873247    -0.19800
C2491       C  0.69608691  0.27524806  0.39233531    -0.25000
C2492       C  0.68363978  0.27278032  0.37189641     0.27700
H2493       H  0.78490185  0.26936423  0.35334746     0.13400
N2494       N  0.82224710  0.28344791  0.39066010    -0.82300
H2495       H  0.66954499  0.27380328  0.40318410     0.18300
N2496       N  0.63875362  0.27343252  0.36590691    -0.80900
H2497       H  0.84335645  0.28461913  0.37838941     0.33900
H2498       H  0.84458891  0.31961870  0.39807039     0.38400
H2499       H  0.60627673  0.24248751  0.37278579     0.33900
H2500       H  0.64384155  0.30849588  0.37110815     0.30600
H2501       H  0.79705525  0.29185543  0.31375835     0.33900
H2502       H  0.78851626  0.34192102  0.31337435     0.30600
H2503       H  0.54747768  0.14075819  0.30376781     0.38400
H2504       H  0.55346859  0.12800349  0.32687477     0.33900
C2505       C  0.64265971  0.19101225  0.09183176    -0.19800
C2506       C  0.59724913  0.14743685  0.09965008     0.36400
C2507       C  0.58787319  0.14589521  0.12030606    -0.25800
C2508       C  0.62458972  0.18584564  0.13343632     0.02800
C2509       C  0.66892246  0.22928647  0.12503550     0.27600
C2510       C  0.67551043  0.23301739  0.10450189    -0.24900
N2511       N  0.56264329  0.10382919  0.08680997    -0.82300
H2512       H  0.55274352  0.11273252  0.12615301     0.13400
C2513       C  0.61655575  0.18371644  0.15561523     0.02800
N2514       N  0.70946742  0.26913323  0.13732534    -0.80900
H2515       H  0.71037867  0.26671262  0.09869811     0.18200
C2516       C  0.62398375  0.22812806  0.16563645    -0.25700
C2517       C  0.61797315  0.22918351  0.18626041     0.36300
C2518       C  0.60756674  0.18597497  0.19796671    -0.19800
C2519       C  0.59856944  0.14080033  0.18788706    -0.25000
C2520       C  0.60169503  0.13885853  0.16701546     0.27700
H2521       H  0.63336660  0.26227734  0.15728319     0.13400
N2522       N  0.62040124  0.27368433  0.19500225    -0.82300
H2523       H  0.58746948  0.10587715  0.19617909     0.18300
N2524       N  0.58950503  0.09097260  0.15760600    -0.80900
H2525       H  0.59126794  0.27700337  0.18827687     0.33900
H2526       H  0.65602463  0.30739493  0.19171735     0.38400
H2527       H  0.61164733  0.07844074  0.16451033     0.33900
H2528       H  0.55082929  0.06232029  0.16043671     0.30600
H2529       H  0.74351729  0.26991286  0.13469529     0.33900
H2530       H  0.71500440  0.30451973  0.13262665     0.30600
H2531       H  0.54671781  0.11704484  0.07638072     0.38400
H2532       H  0.53162748  0.07446092  0.09483089     0.33900
C2533       C  0.86555908  0.29737599  0.79400502    -0.19800
C2534       C  0.88386961  0.33905831  0.80780694     0.36400
C2535       C  0.87763815  0.32853183  0.82798650    -0.25800
C2536       C  0.85017722  0.27711752  0.83475584     0.02800
C2537       C  0.82409812  0.23570550  0.82067904     0.27600
C2538       C  0.83469670  0.24594185  0.80045317    -0.24900
N2539       N  0.91084310  0.39230124  0.80156392    -0.82300
H2540       H  0.89505333  0.36088627  0.83849541     0.13400
C2541       C  0.84627923  0.26933885  0.85654072     0.02800
N2542       N  0.78520875  0.18418699  0.82667176    -0.80900
H2543       H  0.81870551  0.21390488  0.78969405     0.18200
C2544       C  0.79741940  0.23706168  0.86497776    -0.25700
C2545       C  0.79083025  0.23958774  0.88519207     0.36300
C2546       C  0.83296110  0.27719259  0.89700956    -0.19800
C2547       C  0.88318383  0.30439403  0.88945083    -0.25000
C2548       C  0.89042229  0.29986826  0.86919670     0.27700
H2549       H  0.76297883  0.21275047  0.85593280     0.13400
N2550       N  0.74030345  0.20689836  0.89339189    -0.82300
H2551       H  0.91586861  0.33204653  0.89891218     0.18300
N2552       N  0.94173708  0.32889060  0.86114194    -0.80900
H2553       H  0.72833959  0.16794283  0.89084126     0.33900
H2554       H  0.71444368  0.21247639  0.88522711     0.38400
H2555       H  0.96979915  0.34771579  0.87252206     0.33900
H2556       H  0.94847589  0.30207990  0.85436123     0.30600
H2557       H  0.77328827  0.15881486  0.81451738     0.33900
H2558       H  0.80164251  0.17218128  0.83720115     0.30600
H2559       H  0.88889161  0.40769023  0.80579253     0.38400
H2560       H  0.94600940  0.41293552  0.80955367     0.33900
C2561       C  0.64137528  0.45081125  0.90084811    -0.19800
C2562       C  0.63620601  0.40978852  0.88925401     0.36400
C2563       C  0.61231475  0.39931003  0.87032230    -0.25800
C2564       C  0.58734164  0.42458837  0.86350672     0.02800
C2565       C  0.58402900  0.45853671  0.87735654     0.27600
C2566       C  0.61378112  0.47368097  0.89517620    -0.24900
N2567       N  0.65884261  0.38164471  0.89624643    -0.82300
H2568       H  0.61726550  0.37428774  0.86055246     0.13400
C2569       C  0.57021394  0.41890127  0.84178144     0.02800
N2570       N  0.54852765  0.47545823  0.87470083    -0.80900
H2571       H  0.60565804  0.00119518  0.90719746     0.18200
C2572       C  0.57323999  0.46127165  0.83174304    -0.25700
C2573       C  0.55906199  0.45807070  0.81145158     0.36300
C2574       C  0.54824377  0.41413402  0.79989342    -0.19800
C2575       C  0.54575603  0.37225325  0.80978643    -0.25000
C2576       C  0.55352245  0.37289129  0.83032538     0.27700
H2577       H  0.58532800  0.49693255  0.83973531     0.13400
N2578       N  0.55234691  0.49754598  0.80309940    -0.82300
H2579       H  0.53411385  0.33630075  0.80177852     0.18300
N2580       N  0.54241150  0.32531380  0.83917936    -0.80900
H2581       H  0.55989705  0.52618636  0.81374843     0.33900
H2582       H  0.57952754  0.51594501  0.79206642     0.38400
H2583       H  0.50348853  0.29636237  0.83594764     0.33900
H2584       H  0.56454157  0.31398754  0.83168562     0.30600
H2585       H  0.51090866  0.94748070  0.86592900     0.33900
H2586       H  0.56994115  0.51562200  0.87194026     0.30600
H2587       H  0.62891764  0.34426200  0.90008667     0.38400
H2588       H  0.67934598  0.37779519  0.88483026     0.33900
C2589       C  0.54940412  0.40688660  0.70000737    -0.19800
C2590       C  0.55045555  0.44337348  0.68674783     0.36400
C2591       C  0.55740138  0.43953373  0.66627562    -0.25800
C2592       C  0.56353180  0.39991019  0.65846193     0.02800
C2593       C  0.56042639  0.36264017  0.67187374     0.27600
C2594       C  0.55531969  0.36751348  0.69218260    -0.24900
N2595       N  0.54456192  0.48443475  0.69386418    -0.82300
H2596       H  0.55948807  0.46892897  0.65665465     0.13400
C2597       C  0.58152138  0.40313976  0.63743875     0.02800
N2598       N  0.56094394  0.31831682  0.66509425    -0.80900
H2599       H  0.55316311  0.33779967  0.70173773     0.18200
C2600       C  0.62111761  0.39375878  0.63380247    -0.25700
C2601       C  0.64778450  0.40713284  0.61599340     0.36300
C2602       C  0.63578054  0.43153732  0.60117539    -0.19800
C2603       C  0.59239378  0.43557672  0.60352110    -0.25000
C2604       C  0.56494916  0.42123680  0.62144778     0.27700
H2605       H  0.63450645  0.37963219  0.64540642     0.13400
N2606       N  0.68861874  0.39774226  0.61365154    -0.82300
H2607       H  0.58194066  0.45313102  0.59193596     0.18300
N2608       N  0.52094867  0.42586901  0.62336729    -0.80900
H2609       H  0.72359598  0.43343406  0.61161293     0.33900
H2610       H  0.68020199  0.37470868  0.60083812     0.38400
H2611       H  0.53313984  0.46481737  0.62075550     0.33900
H2612       H  0.49352304  0.40246535  0.61228984     0.30600
H2613       H  0.59174700  0.31904082  0.67247292     0.33900
H2614       H  0.52656593  0.28452091  0.66952713     0.30600
H2615       H  0.57778122  0.52030550  0.69016207     0.38400
H2616       H  0.51262671  0.48113251  0.68637822     0.33900
C2617       C  0.85260422  0.27339039  0.69972373    -0.19800
C2618       C  0.81346760  0.28130910  0.69323268     0.36400
C2619       C  0.79532875  0.26935826  0.67326863    -0.25800
C2620       C  0.81337254  0.24650665  0.66015572     0.02800
C2621       C  0.84523768  0.23004087  0.66811085     0.27600
C2622       C  0.86638533  0.24575677  0.68732181    -0.24900
N2623       N  0.79168365  0.30032695  0.70699142    -0.82300
H2624       H  0.76764236  0.27860972  0.66796555     0.13400
C2625       C  0.80058633  0.24141168  0.63833975     0.02800
N2626       N  0.85498945  0.19527922  0.65752094    -0.80900
H2627       H  0.89414054  0.23630523  0.69249962     0.18200
C2628       C  0.84103057  0.26001254  0.62462493    -0.25700
C2629       C  0.83112343  0.25798757  0.60411103     0.36300
C2630       C  0.77967965  0.23628136  0.59688607    -0.19800
C2631       C  0.73900676  0.21376867  0.61041360    -0.25000
C2632       C  0.74922147  0.21833909  0.63097202     0.27700
H2633       H  0.88088876  0.27784129  0.62995202     0.13400
N2634       N  0.87409721  0.27983078  0.59096265    -0.82300
H2635       H  0.69927988  0.19624379  0.60510894     0.18300
N2636       N  0.70740278  0.20147103  0.64428858    -0.80900
H2637       H  0.87520713  0.30992873  0.58304115     0.33900
H2638       H  0.86759410  0.25050025  0.58084089     0.38400
H2639       H  0.69023278  0.22258032  0.64119107     0.33900
H2640       H  0.68010716  0.16189396  0.64137001     0.30600
H2641       H  0.84065172  0.16205386  0.66627085     0.33900
H2642       H  0.83337643  0.18164643  0.64425032     0.30600
H2643       H  0.77791914  0.27541569  0.71913358     0.38400
H2644       H  0.75912212  0.29775349  0.70044269     0.33900
C2645       C  0.59445507  0.15789336  0.80003270    -0.19800
C2646       C  0.55518332  0.16813170  0.80275419     0.36400
C2647       C  0.54483379  0.17734007  0.82220633    -0.25800
C2648       C  0.57293103  0.17579350  0.83870504     0.02800
C2649       C  0.61467834  0.16965798  0.83560825     0.27600
C2650       C  0.62536348  0.16142633  0.81630897    -0.24900
N2651       N  0.52826616  0.17187589  0.78581703    -0.82300
H2652       H  0.51500438  0.18567570  0.82454918     0.13400
C2653       C  0.56020308  0.18254112  0.85922483     0.02800
N2654       N  0.64673366  0.17297484  0.85209644    -0.80900
H2655       H  0.65851187  0.15826313  0.81387913     0.18200
C2656       C  0.53850874  0.13962563  0.87197763    -0.25700
C2657       C  0.52484055  0.14362005  0.89140974     0.36300
C2658       C  0.53254722  0.19171892  0.89818858    -0.19800
C2659       C  0.55647616  0.23487609  0.88574132    -0.25000
C2660       C  0.57142811  0.23132084  0.86657277     0.27700
H2661       H  0.53155974  0.10248091  0.86669179     0.13400
N2662       N  0.00832391  0.10143281  0.90345847    -0.82300
H2663       H  0.56142532  0.27112302  0.89071803     0.18300
N2664       N  0.59799296  0.27800383  0.85511097    -0.80900
H2665       H  0.97265857  0.07196974  0.89718209     0.33900
H2666       H  0.00097224  0.11005680  0.91756962     0.38400
H2667       H  0.63050305  0.30608878  0.86337332     0.33900
H2668       H  0.61204974  0.27241279  0.84195020     0.30600
H2669       H  0.67661960  0.16903418  0.84708829     0.33900
H2670       H  0.66471989  0.21083026  0.85811164     0.30600
H2671       H  0.50655121  0.13485866  0.77897357     0.38400
H2672       H  0.50202168  0.18183054  0.79029552     0.33900
C2673       C  0.74867390  0.03323591  0.89658143    -0.19800
C2674       C  0.76193578  0.08372090  0.89114816     0.36400
C2675       C  0.76287503  0.09514194  0.87104521    -0.25800
C2676       C  0.74623898  0.05561264  0.85643751     0.02800
C2677       C  0.73841455  0.00717455  0.86176722     0.27600
C2678       C  0.74468522  0.99856725  0.88175337    -0.24900
N2679       N  0.77149342  0.12285162  0.90565033    -0.82300
H2680       H  0.77109844  0.13326809  0.86705749     0.13400
C2681       C  0.72835848  0.06174816  0.83670616     0.02800
N2682       N  0.72031937  0.96571896  0.84721278    -0.80900
H2683       H  0.74072438  0.96229375  0.88589704     0.18200
C2684       C  0.75197449  0.05921952  0.81934795    -0.25700
C2685       C  0.73507369  0.06501623  0.80048460     0.36300
C2686       C  0.69337081  0.07226102  0.79925892    -0.19800
C2687       C  0.66738688  0.07045348  0.81639501    -0.25000
C2688       C  0.68518620  0.06686444  0.83517806     0.27700
H2689       H  0.78463748  0.05469390  0.82067638     0.13400
N2690       N  0.76080659  0.06538925  0.78278170    -0.82300
H2691       H  0.63419037  0.07409053  0.81516676     0.18300
N2692       N  0.65926434  0.06802507  0.85265160    -0.80900
H2693       H  0.79008540  0.05868726  0.78632246     0.33900
H2694       H  0.73359047  0.03361708  0.77384645     0.38400
H2695       H  0.62818676  0.07177644  0.84874337     0.33900
H2696       H  0.68486734  0.10224635  0.86070714     0.30600
H2697       H  0.71299013  0.93148847  0.85398380     0.33900
H2698       H  0.68449417  0.95709199  0.84142473     0.30600
H2699       H  0.73916325  0.10788302  0.91472405     0.38400
H2700       H  0.80398552  0.13180670  0.91435780     0.33900
C2701       C  0.70147025  0.08661496  0.70741951    -0.19800
C2702       C  0.71132280  0.12408521  0.69296372     0.36400
C2703       C  0.72463375  0.11822967  0.67405356    -0.25800
C2704       C  0.72424100  0.07387709  0.66869490     0.02800
C2705       C  0.71785241  0.03780112  0.68326728     0.27600
C2706       C  0.70577362  0.04408902  0.70271759    -0.24900
N2707       N  0.70298906  0.16539544  0.69707190    -0.82300
H2708       H  0.73124723  0.14611890  0.66286350     0.13400
C2709       C  0.72533229  0.06454230  0.64740451     0.02800
N2710       N  0.72312718  0.99497249  0.67837890    -0.80900
H2711       H  0.69875277  0.01554403  0.71389043     0.18200
C2712       C  0.76980337  0.06886307  0.63980431    -0.25700
C2713       C  0.77206687  0.05995492  0.61961767     0.36300
C2714       C  0.72885697  0.04494907  0.60723948    -0.19800
C2715       C  0.68792464  0.04827760  0.61407677    -0.25000
C2716       C  0.68520521  0.05758371  0.63414254     0.27700
H2717       H  0.80271508  0.07936809  0.64951629     0.13400
N2718       N  0.81821036  0.06671400  0.61152256    -0.82300
H2719       H  0.65591636  0.03947056  0.60406244     0.18300
N2720       N  0.64128055  0.05934368  0.64031829    -0.80900
H2721       H  0.82875820  0.04444332  0.61960221     0.33900
H2722       H  0.84723671  0.10619013  0.61357513     0.38400
H2723       H  0.60740444  0.02505509  0.63532426     0.33900
H2724       H  0.63880485  0.06020310  0.65569146     0.30600
H2725       H  0.68935798  0.96048520  0.68265911     0.33900
H2726       H  0.75378967  0.99899816  0.68708018     0.30600
H2727       H  0.70489422  0.18520670  0.68417880     0.38400
H2728       H  0.73312025  0.19215583  0.70655681     0.33900
C2729       C  0.59743962  0.15349145  0.70341656    -0.19800
C2730       C  0.62348209  0.20346814  0.69474192     0.36400
C2731       C  0.62009058  0.20769747  0.67398173    -0.25800
C2732       C  0.58873902  0.16336284  0.66155514     0.02800
C2733       C  0.56081051  0.11369687  0.67051661     0.27600
C2734       C  0.56539288  0.10935489  0.69110632    -0.24900
N2735       N  0.65398762  0.24974626  0.70696169    -0.82300
H2736       H  0.64326296  0.24602414  0.66749398     0.13400
C2737       C  0.58448047  0.16955216  0.63949920     0.02800
N2738       N  0.52733378  0.06720129  0.65887371    -0.80900
H2739       H  0.54469970  0.07056609  0.69736601     0.18200
C2740       C  0.58584246  0.13519852  0.62563820    -0.25700
C2741       C  0.57698745  0.13728217  0.60518185     0.36300
C2742       C  0.56435917  0.17320474  0.59845802    -0.19800
C2743       C  0.56974136  0.21152337  0.61167104    -0.25000
C2744       C  0.57902632  0.20971975  0.63195197     0.27700
H2745       H  0.59320460  0.10602635  0.63067320     0.13400
N2746       N  0.58227235  0.10357314  0.59170804    -0.82300
H2747       H  0.56156434  0.24023735  0.60650616     0.18300
N2748       N  0.57866762  0.24676400  0.64488363    -0.80900
H2749       H  0.04986086  0.08073904  0.58241747     0.33900
H2750       H  0.11147351  0.13043909  0.57847200     0.38400
H2751       H  0.60809288  0.28406391  0.64041569     0.33900
H2752       H  0.54318781  0.24346682  0.64250659     0.30600
H2753       H  0.54091346  0.04225106  0.66041970     0.33900
H2754       H  0.49015448  0.04828281  0.66481483     0.30600
H2755       H  0.67021978  0.28335917  0.69832903     0.38400
H2756       H  0.62859265  0.25169616  0.71661721     0.33900
C2757       C  0.90899056  0.07229506  0.79670043    -0.19800
C2758       C  0.93080669  0.05968209  0.81260533     0.36400
C2759       C  0.93321620  0.07940921  0.83173225    -0.25800
C2760       C  0.91490476  0.11225388  0.83542003     0.02800
C2761       C  0.89812038  0.12906075  0.81911927     0.27600
C2762       C  0.89525608  0.10888804  0.79999915    -0.24900
N2763       N  0.94902218  0.02550424  0.80968410    -0.82300
H2764       H  0.94919847  0.06853644  0.84382338     0.13400
C2765       C  0.91425691  0.12867459  0.85633864     0.02800
N2766       N  0.88107800  0.16412648  0.82220432    -0.80900
H2767       H  0.88045604  0.12038640  0.78770292     0.18200
C2768       C  0.93463849  0.18162647  0.86103367    -0.25700
C2769       C  0.94170002  0.19920911  0.88075884     0.36300
C2770       C  0.93104234  0.16363836  0.89616059    -0.19800
C2771       C  0.90444419  0.11002266  0.89171431    -0.25000
C2772       C  0.89546831  0.09204943  0.87189451     0.27700
H2773       H  0.94794873  0.21021200  0.84944079     0.13400
N2774       N  0.45290036  0.24503265  0.88552567    -0.82300
H2775       H  0.89505417  0.08268118  0.90365168     0.18300
N2776       N  0.86971905  0.03701750  0.86753564    -0.80900
H2777       H  0.49011377  0.26925658  0.87993311     0.33900
H2778       H  0.45477999  0.25301829  0.90072899     0.38400
H2779       H  0.85714172  0.01543713  0.88057747     0.33900
H2780       H  0.83644789  0.02595203  0.85896052     0.30600
H2781       H  0.86682612  0.17009100  0.80895372     0.33900
H2782       H  0.84998158  0.14476011  0.83173389     0.30600
H2783       H  0.92358683  0.49416847  0.81835395     0.38400
H2784       H  0.98862847  0.04632663  0.81359815     0.33900
C2785       C  0.78636317  0.39459251  0.79398143    -0.19800
C2786       C  0.78713888  0.42902820  0.80830792     0.36400
C2787       C  0.78493190  0.41759346  0.82838083    -0.25800
C2788       C  0.77506772  0.36939675  0.83446537     0.02800
C2789       C  0.76360115  0.33050198  0.81992077     0.27600
C2790       C  0.77325907  0.34465852  0.79976109    -0.24900
N2791       N  0.79169499  0.47657305  0.80257152    -0.82300
H2792       H  0.79233689  0.44702780  0.83932875     0.13400
C2793       C  0.78100745  0.36246889  0.85592850     0.02800
N2794       N  0.74088147  0.27706902  0.82554537    -0.80900
H2795       H  0.76965484  0.31681609  0.78866038     0.18200
C2796       C  0.73758761  0.32620463  0.86666936    -0.25700
C2797       C  0.74204259  0.31930608  0.88706471     0.36300
C2798       C  0.79195746  0.34411599  0.89608871    -0.19800
C2799       C  0.83529820  0.38199583  0.88561846    -0.25000
C2800       C  0.82981669  0.39346709  0.86590164     0.27700
H2801       H  0.70029578  0.30395235  0.85908860     0.13400
N2802       N  0.69631394  0.28865785  0.89870782    -0.82300
H2803       H  0.87338955  0.40243207  0.89286894     0.18300
N2804       N  0.87311325  0.43699182  0.85619045    -0.80900
H2805       H  0.66295979  0.27110640  0.88959079     0.33900
H2806       H  0.69731920  0.25844728  0.90553717     0.38400
H2807       H  0.90648796  0.45456697  0.86536857     0.33900
H2808       H  0.88138926  0.42334959  0.84347997     0.30600
H2809       H  0.73797332  0.25411343  0.81333674     0.33900
H2810       H  0.76553002  0.27592200  0.83599685     0.30600
H2811       H  0.82277590  0.50724347  0.81067534     0.38400
H2812       H  0.75773328  0.47421023  0.80680863     0.33900
C2813       C  0.95137114  0.11328040  0.59961437    -0.19800
C2814       C  0.94524002  0.06701808  0.60728177     0.36400
C2815       C  0.93973849  0.05883652  0.62771427    -0.25800
C2816       C  0.93905475  0.09513866  0.64039436     0.02800
C2817       C  0.94112698  0.13891762  0.63254233     0.27600
C2818       C  0.94706625  0.14762196  0.61214441    -0.24900
N2819       N  0.94442925  0.02791154  0.59484281    -0.82300
H2820       H  0.93667266  0.02436003  0.63383445     0.13400
C2821       C  0.93071227  0.08414838  0.66166597     0.02800
N2822       N  0.93703951  0.17414136  0.64541402    -0.80900
H2823       H  0.95191400  0.18310693  0.60618021     0.18200
C2824       C  0.96922758  0.11741363  0.67585304    -0.25700
C2825       C  0.96150197  0.10625315  0.69624422     0.36300
C2826       C  0.91426634  0.06200058  0.70205638    -0.19800
C2827       C  0.87505002  0.03126602  0.68790408    -0.25000
C2828       C  0.88295139  0.04157487  0.66784994     0.27700
H2829       H  0.00517246  0.15150218  0.67098299     0.13400
N2830       N  0.00031857  0.13977070  0.71090144    -0.82300
H2831       H  0.83797998  0.99795819  0.69240589     0.18300
N2832       N  0.84204266  0.00887503  0.65383011    -0.80900
H2833       H  0.03193998  0.17171284  0.70405727     0.33900
H2834       H  0.98410833  0.15525819  0.71993346     0.38400
H2835       H  0.83181720  0.97045491  0.65594934     0.33900
H2836       H  0.80945798  0.00986706  0.65738390     0.30600
H2837       H  0.93483275  0.20189963  0.63709526     0.33900
H2838       H  0.90175574  0.15159089  0.65253206     0.30600
H2839       H  0.45325351  0.04465525  0.58268739     0.38400
H2840       H  0.97546349  0.02458355  0.59927441     0.33900
C2841       C  0.77139497  0.32572695  0.59260658    -0.19800
C2842       C  0.72829506  0.31048291  0.60452330     0.36400
C2843       C  0.73591649  0.32615733  0.62456065    -0.25800
C2844       C  0.78610498  0.36191394  0.63270968     0.02800
C2845       C  0.82868665  0.38266256  0.61965436     0.27600
C2846       C  0.82110026  0.36340016  0.60001913    -0.24900
N2847       N  0.67638358  0.27782944  0.59664751    -0.82300
H2848       H  0.70208197  0.30850594  0.63376618     0.13400
C2849       C  0.79343768  0.37604427  0.65464442     0.02800
N2850       N  0.87986978  0.42342127  0.62609429    -0.80900
H2851       H  0.85451086  0.37661871  0.59074461     0.18200
C2852       C  0.83845416  0.38612207  0.66505116    -0.25700
C2853       C  0.84787167  0.40225429  0.68509670     0.36300
C2854       C  0.80886594  0.40243801  0.69615069    -0.19800
C2855       C  0.76359037  0.39152155  0.68600744    -0.25000
C2856       C  0.75670414  0.38068853  0.66547464     0.27700
H2857       H  0.86704686  0.38147959  0.65778805     0.13400
N2858       N  0.89801678  0.42015230  0.69383438    -0.82300
H2859       H  0.73439152  0.39434317  0.69379798     0.18300
N2860       N  0.71388996  0.37827307  0.65558422    -0.80900
H2861       H  0.90572768  0.39078181  0.69189793     0.33900
H2862       H  0.92581825  0.45277717  0.68596774     0.38400
H2863       H  0.67998768  0.34907761  0.66232414     0.33900
H2864       H  0.71765334  0.41423751  0.65801291     0.30600
H2865       H  0.90495473  0.41033657  0.62403532     0.33900
H2866       H  0.89157744  0.45515628  0.61687374     0.30600
H2867       H  0.67173535  0.29744284  0.58490309     0.38400
H2868       H  0.67132286  0.24340743  0.59080452     0.33900
O2869       O  0.83082940  0.78332610  0.98604617    -0.80900
O2870       O  0.82349769  0.61643087  0.03983350    -0.65500
O2871       O  0.86100773  0.72121002  0.00082340    -1.12200
C2872       C  0.77741713  0.55735601  0.96731215     1.06000
O2873       O  0.82239129  0.55521138  0.01910663    -0.78800
O2874       O  0.91468841  0.64581185  0.97812988    -0.66300
Ni2875     Ni  0.87153760  0.78290846  0.00854908     1.34900
C2876       C  0.91848500  0.68147468  0.96696714     0.84800
O2877       O  0.91633526  0.70637512  0.02643417    -0.79300
O2878       O  0.91704842  0.78178972  0.03010257    -0.89600
C2879       C  0.81381680  0.56925546  0.03585375     0.84300
O2880       O  0.81001426  0.75527640  0.02493679    -0.67800
O2881       O  0.81005859  0.55302992  0.97838958    -0.87100
C2882       C  0.77176203  0.70858394  0.02810191     0.85200
C2883       C  0.93707553  0.75349557  0.03373223     1.06700
H2884       H  0.79025861  0.60199499  0.00332952     0.38500
O2885       O  0.82600828  0.62977834  0.00117715    -1.09700
O2886       O  0.88251160  0.69104086  0.96675216    -0.66400
Ni2887     Ni  0.81957506  0.66764873  0.98209633     1.26300
O2888       O  0.77489639  0.66831860  0.02362188    -0.66600
O2889       O  0.77874238  0.60157145  0.96579744    -0.78900
C2890       C  0.81336616  0.75713640  0.96954729     0.84600
O2891       O  0.80852238  0.71264178  0.96579786    -0.66100
Ni2892     Ni  0.86457405  0.59963261  0.99809795     1.27400
Ni2893     Ni  0.84363149  0.67695842  0.02266362     1.26100
H2894       H  0.89591371  0.73266852  0.99700618     0.39100
O2895       O  0.79188416  0.54628645  0.48275217    -0.80900
O2896       O  0.78269496  0.68285670  0.52159746    -0.65500
O2897       O  0.82118040  0.62793196  0.50365096    -1.12200
C2898       C  0.94367098  0.77816838  0.46916896     1.06000
O2899       O  0.82814569  0.77081397  0.51883423    -0.78800
O2900       O  0.83550354  0.77018176  0.47926505    -0.66300
Ni2901     Ni  0.84263909  0.57914521  0.50314102     1.34900
C2902       C  0.80035039  0.72620271  0.47181907     0.84800
O2903       O  0.79812438  0.60929699  0.54208274    -0.79300
O2904       O  0.79434255  0.54246685  0.52441201    -0.89600
C2905       C  0.78822288  0.72798319  0.52473683     0.84300
O2906       O  0.90193666  0.60935642  0.52115818    -0.67800
O2907       O  0.94146581  0.80593524  0.48315831    -0.87100
C2908       C  0.92566334  0.65111168  0.53138712     0.85200
C2909       C  0.78087130  0.55930145  0.53923135     1.06700
H2910       H  0.91664755  0.73618753  0.50841950     0.38500
O2911       O  0.88068505  0.72442492  0.50575276    -1.09700
O2912       O  0.80124873  0.68459287  0.47509046    -0.66400
Ni2913     Ni  0.85918005  0.67624746  0.48413101     1.26300
O2914       O  0.90541558  0.67785931  0.53375507    -0.66600
O2915       O  0.90767952  0.72934446  0.46611094    -0.78900
C2916       C  0.80555148  0.56759036  0.46588013     0.84600
O2917       O  0.83425202  0.61864167  0.46422993    -0.66100
Ni2918     Ni  0.88428334  0.78761296  0.50110325     1.27400
Ni2919     Ni  0.84109576  0.67340627  0.52588527     1.26100
H2920       H  0.78417937  0.61102485  0.50102873     0.39100
O2921       O  0.85364151  0.53796766  0.76828953    -0.74400
O2922       O  0.79379736  0.93358291  0.72515121    -0.74400
O2923       O  0.78230369  0.92958914  0.76564949    -0.74500
O2924       O  0.86048956  0.54393938  0.72864101    -0.74500
O2925       O  0.92436982  0.52861751  0.72941506    -0.74500
O2926       O  0.84810964  0.91805542  0.76979827    -0.74400
O2927       O  0.85882152  0.92078118  0.72884106    -0.74400
O2928       O  0.91890827  0.52504920  0.76999747    -0.74500
Ni2929     Ni  0.81931529  0.98335624  0.74701136     1.25400
Ni2930     Ni  0.88961487  0.97036334  0.75042762     1.25400
C2931       C  0.89569482  0.54649530  0.77662630     0.87800
C2932       C  0.82001113  0.91478945  0.71875988     0.87700
C2933       C  0.80455409  0.91064669  0.77530376     0.87700
C2934       C  0.90219186  0.55058079  0.72176214     0.87900
O2935       O  0.66083917  0.57153601  0.73376787    -0.74400
O2936       O  0.60208396  0.62291650  0.77029097    -0.74400
O2937       O  0.60888999  0.61953814  0.72942276    -0.74500
O2938       O  0.65305053  0.57381556  0.77365411    -0.74500
O2939       O  0.72848138  0.65104005  0.77572670    -0.74500
O2940       O  0.68534598  0.69598681  0.73015047    -0.74400
O2941       O  0.67766625  0.70020392  0.77159072    -0.74400
O2942       O  0.73674925  0.64814418  0.73566057    -0.74500
Ni2943     Ni  0.62846532  0.59445833  0.75172194     1.25400
Ni2944     Ni  0.70958685  0.67692100  0.75333057     1.25400
C2945       C  0.70817914  0.60164398  0.72838179     0.87800
C2946       C  0.63187739  0.66860723  0.77820054     0.87700
C2947       C  0.64162382  0.66309486  0.72139926     0.87700
C2948       C  0.69703559  0.60484023  0.78219861     0.87900
O2949       O  0.50386919  0.91876940  0.77161570    -0.74400
O2950       O  0.91254413  0.85961868  0.72571140    -0.74400
O2951       O  0.90236540  0.85641391  0.76631293    -0.74500
O2952       O  0.51810956  0.92060237  0.73046520    -0.74500
O2953       O  0.52299646  0.85027205  0.73300556    -0.74500
O2954       O  0.90483628  0.78434871  0.76721949    -0.74400
O2955       O  0.91646074  0.78822228  0.72666231    -0.74400
O2956       O  0.50907298  0.84856079  0.77342336    -0.74500
Ni2957     Ni  0.95864415  0.89015290  0.74843198     1.25400
Ni2958     Ni  0.96176196  0.81323136  0.74953445     1.25400
C2959       C  0.51679341  0.89083842  0.78126818     0.87800
C2960       C  0.90306073  0.81663289  0.71789758     0.87700
C2961       C  0.89047019  0.81349115  0.77455159     0.87700
C2962       C  0.53527646  0.89283320  0.72422750     0.87900
C2963       C  0.96711254  0.65885386  0.54612066     0.02300
C2964       C  0.52177581  0.68314230  0.54506313     0.02300
C2965       C  0.54813871  0.68156289  0.56227602    -0.18200
C2966       C  0.52309296  0.66197270  0.58017949     0.02300
C2967       C  0.97348858  0.63886767  0.58057491     0.02300
C2968       C  0.94450101  0.63819547  0.56443608    -0.18200
H2969       H  0.90316754  0.62150393  0.56642287     0.04300
H2970       H  0.58982409  0.69829049  0.56207606     0.04300
C2971       C  0.71512367  0.96235243  0.55307305     0.02300
C2972       C  0.74453318  0.51957391  0.55452496     0.02300
C2973       C  0.74801714  0.54211213  0.57340746    -0.18200
C2974       C  0.71450580  0.51368089  0.58880284     0.02300
C2975       C  0.68897500  0.96172370  0.58776445     0.02300
C2976       C  0.68675422  0.93540051  0.57026340    -0.18200
H2977       H  0.66094253  0.89312042  0.57002293     0.04300
H2978       H  0.77807162  0.58280117  0.57651408     0.04300
C2979       C  0.80486140  0.78248260  0.95245182     0.02300
C2980       C  0.78426738  0.81528957  0.95273936     0.02300
C2981       C  0.78174511  0.83786719  0.93481007    -0.18200
C2982       C  0.79731699  0.82781228  0.91703363     0.02300
C2983       C  0.81724287  0.79563892  0.91694888     0.02300
C2984       C  0.82154513  0.77416201  0.93432835    -0.18200
H2985       H  0.83838719  0.75053296  0.93352609     0.04300
H2986       H  0.76622930  0.86271321  0.93446347     0.04300
C2987       C  0.73803997  0.76727358  0.54129908     0.02300
C2988       C  0.76022733  0.73491159  0.54139800     0.02300
C2989       C  0.77899801  0.72793562  0.55965784    -0.18200
C2990       C  0.78203103  0.75536654  0.57680453     0.02300
C2991       C  0.76015525  0.78592763  0.57686909     0.02300
C2992       C  0.73871799  0.79167509  0.55936797    -0.18200
H2993       H  0.72015639  0.81365566  0.56017156     0.04300
H2994       H  0.79797337  0.70624121  0.56009357     0.04300
C2995       C  0.74414450  0.51305583  0.95237298     0.02300
C2996       C  0.69496714  0.97111833  0.95500860     0.02300
C2997       C  0.65967128  0.95578886  0.93871331    -0.18200
C2998       C  0.67574951  0.97653664  0.91981376     0.02300
C2999       C  0.73114592  0.50963055  0.91636887     0.02300
C3000       C  0.76320335  0.52959487  0.93325552    -0.18200
H3001       H  0.80348452  0.56118168  0.93157189     0.04300
H3002       H  0.61968296  0.92316122  0.94015132     0.04300
C3003       C  0.52338602  0.73846478  0.94965021     0.02300
C3004       C  0.95642947  0.70153866  0.94970831     0.02300
C3005       C  0.92812643  0.67997717  0.93161113    -0.18200
C3006       C  0.95163962  0.68211702  0.91377939     0.02300
C3007       C  0.51884499  0.71203355  0.91423600     0.02300
C3008       C  0.54730756  0.73690966  0.93175218    -0.18200
H3009       H  0.58922197  0.75677002  0.93096557     0.04300
H3010       H  0.88608597  0.65887775  0.93145328     0.04300
O3011       O  0.67459208  0.72602147  0.47729110    -0.80900
O3012       O  0.66964693  0.87592587  0.53584333    -0.65500
O3013       O  0.62220078  0.77118667  0.49292566    -1.12200
C3014       C  0.72233825  0.93725713  0.46045491     1.06000
O3015       O  0.71406700  0.94913024  0.51778861    -0.78800
O3016       O  0.60490988  0.89062131  0.47856221    -0.66300
Ni3017     Ni  0.61926412  0.70781399  0.49584114     1.34900
C3018       C  0.57813576  0.84795570  0.46890478     0.84800
O3019       O  0.59400721  0.76269290  0.53256829    -0.79300
O3020       O  0.56310991  0.68749331  0.51455765    -0.89600
C3021       C  0.70058306  0.92731293  0.53462393     0.84300
O3022       O  0.66889584  0.72432778  0.51712385    -0.67800
O3023       O  0.71214393  0.95475096  0.47601640    -0.87100
C3024       C  0.70219197  0.76755584  0.52554057     0.85200
C3025       C  0.55952375  0.71336008  0.52899689     1.06700
H3026       H  0.71900796  0.88337952  0.49830228     0.38500
O3027       O  0.68209949  0.86756886  0.49582494    -1.13500
O3028       O  0.59527209  0.81847043  0.46677535    -0.66400
Ni3029     Ni  0.66046658  0.82303029  0.47305101     1.26300
O3030       O  0.70055815  0.80896253  0.52326195    -0.66600
O3031       O  0.70204564  0.88702240  0.45693247    -0.78900
C3032       C  0.71458788  0.76930133  0.47172024     0.84600
O3033       O  0.71969479  0.81399659  0.47543765    -0.66100
Ni3034     Ni  0.66321097  0.91820721  0.49706518     1.27400
Ni3035     Ni  0.64339460  0.81825797  0.51506859     1.26100
H3036       H  0.58616403  0.75902814  0.49058752     0.39100
O3037       O  0.55036716  0.81213922  0.01918308    -0.80900
O3038       O  0.72016054  0.82681815  0.96551852    -0.65500
O3039       O  0.63050678  0.82877653  0.00135427    -1.12200
C3040       C  0.75432816  0.94311521  0.03465585     1.06000
O3041       O  0.78313357  0.83610238  0.98717302    -0.78800
O3042       O  0.75439069  0.81356855  0.02611487    -0.66300
Ni3043     Ni  0.59068975  0.85751603  0.99798908     1.34900
C3044       C  0.70773248  0.77442401  0.02860565     0.84800
O3045       O  0.61128821  0.78991292  0.96412102    -0.79300
O3046       O  0.54964122  0.80109821  0.97768468    -0.89600
C3047       C  0.76073208  0.82546227  0.96982975     0.84300
O3048       O  0.63224377  0.91059482  0.97832781    -0.67800
O3049       O  0.78270451  0.92309607  0.03136957    -0.87100
C3050       C  0.67511628  0.92629245  0.96971220     0.85200
C3051       C  0.56309876  0.77783553  0.96521720     1.06700
H3052       H  0.73458397  0.90333897  0.99904918     0.38500
O3053       O  0.72241403  0.86774141  0.00226658    -1.09700
O3054       O  0.66810892  0.77799919  0.02394337    -0.66400
Ni3055     Ni  0.67644779  0.84699495  0.02357170     1.26300
O3056       O  0.69437771  0.89799193  0.96986840    -0.66600
O3057       O  0.70642378  0.92052833  0.02792810    -0.78900
C3058       C  0.56688689  0.80943954  0.03654240     0.84600
O3059       O  0.61549085  0.82453104  0.04071305    -0.66100
Ni3060     Ni  0.78321008  0.87681166  0.00990422     1.27400
Ni3061     Ni  0.67241066  0.83020488  0.98221065     1.26100
H3062       H  0.60579900  0.79154563  0.00278040     0.39100
O3063       O  0.98395145  0.70622797  0.23085164    -0.74400
O3064       O  0.60502986  0.73702420  0.26961827    -0.74400
O3065       O  0.59288822  0.73110040  0.22840198    -0.74500
O3066       O  0.99415236  0.70581124  0.27172700    -0.74500
O3067       O  0.95129270  0.61850051  0.27037899    -0.74500
O3068       O  0.56414231  0.64634819  0.22905725    -0.74400
O3069       O  0.57371722  0.65159017  0.27065591    -0.74400
O3070       O  0.94257058  0.61895977  0.22982542    -0.74500
Ni3071     Ni  0.55206859  0.72625850  0.25051738     1.25400
Ni3072     Ni  0.51976356  0.63491293  0.25084367     1.25400
C3073       C  0.94985622  0.66178810  0.22303946     0.87800
C3074       C  0.60374833  0.69828440  0.27784962     0.87700
C3075       C  0.58716533  0.69016216  0.22003309     0.87700
C3076       C  0.96234889  0.66091736  0.27918533     0.87900
O3077       O  0.80662420  0.87265902  0.27237779    -0.74400
O3078       O  0.84787266  0.81724850  0.23110711    -0.74400
O3079       O  0.85949791  0.82493400  0.27167975    -0.74500
O3080       O  0.79562902  0.86378719  0.23343628    -0.74500
O3081       O  0.87030669  0.94043399  0.22901565    -0.74500
O3082       O  0.93279148  0.90375034  0.26964133    -0.74400
O3083       O  0.92281250  0.89434024  0.22862508    -0.74400
O3084       O  0.87936771  0.95116245  0.26864657    -0.74500
Ni3085     Ni  0.82509893  0.84171846  0.25237025     1.25400
Ni3086     Ni  0.90441815  0.92518115  0.24905555     1.25400
C3087       C  0.83508868  0.92167910  0.27655862     0.87800
C3088       C  0.88880907  0.84887267  0.22145152     0.87700
C3089       C  0.90524043  0.85942077  0.27813022     0.87700
C3090       C  0.82330427  0.90593783  0.22391998     0.87900
C3091       C  0.79540291  0.53357730  0.44787482     0.02300
C3092       C  0.75847081  0.97646160  0.44512327     0.02300
C3093       C  0.75381662  0.95463125  0.42606991    -0.18200
C3094       C  0.78513592  0.98442854  0.41044727     0.02300
C3095       C  0.82602702  0.53709366  0.41405698     0.02300
C3096       C  0.82978362  0.56080009  0.43225392    -0.18200
H3097       H  0.86111686  0.60130331  0.43428276     0.04300
H3098       H  0.72399087  0.91392758  0.42289850     0.04300
O3099       O  0.67019392  0.98113961  0.27364251    -0.74400
O3100       O  0.72140601  0.59273565  0.23035954    -0.74400
O3101       O  0.71681255  0.60039653  0.27158336    -0.74500
O3102       O  0.67044632  0.96796928  0.23372518    -0.74500
O3103       O  0.59277064  0.95812570  0.23162911    -0.74500
O3104       O  0.63970572  0.59154307  0.26773111    -0.74400
O3105       O  0.64366187  0.58259652  0.22670554    -0.74400
O3106       O  0.59287163  0.97266536  0.27122775    -0.74500
Ni3107     Ni  0.69886503  0.54582816  0.25203333     1.25400
Ni3108     Ni  0.61582517  0.53573534  0.24883846     1.25400
C3109       C  0.62536344  0.96520759  0.28044019     0.87800
C3110       C  0.68879326  0.59760554  0.22006686     0.87700
C3111       C  0.68208149  0.60863631  0.27765792     0.87700
C3112       C  0.62405395  0.94482492  0.22631704     0.87900
C3113       C  0.77090993  0.97992268  0.05215253     0.02300
C3114       C  0.79669927  0.53093454  0.05221084     0.02300
C3115       C  0.81497677  0.55501671  0.07101251    -0.18200
C3116       C  0.80697851  0.52625179  0.08795607     0.02300
C3117       C  0.77668570  0.97746377  0.08810404     0.02300
C3118       C  0.75790311  0.95218568  0.06986531    -0.18200
H3119       H  0.73404723  0.90958276  0.06951831     0.04300
H3120       H  0.83814538  0.59738938  0.07264486     0.04300
C3121       C  0.76173883  0.72566933  0.45676221     0.02300
C3122       C  0.74717352  0.76438807  0.45614697     0.02300
C3123       C  0.73828272  0.77896890  0.43721449    -0.18200
C3124       C  0.73184074  0.74975492  0.41991661     0.02300
C3125       C  0.73380297  0.70432200  0.42155166     0.02300
C3126       C  0.75139401  0.69450277  0.43943542    -0.18200
H3127       H  0.75914562  0.66357831  0.43952873     0.04300
H3128       H  0.73000233  0.80947025  0.43617266     0.04300
C3129       C  0.69992128  0.72889886  0.04129995     0.02300
C3130       C  0.72861966  0.70211601  0.04147044     0.02300
C3131       C  0.72321246  0.67183410  0.05829205    -0.18200
C3132       C  0.69510796  0.66940617  0.07488097     0.02300
C3133       C  0.66393888  0.69064093  0.07406781     0.02300
C3134       C  0.66571466  0.71857814  0.05723558    -0.18200
H3135       H  0.64481097  0.73825725  0.05790003     0.04300
H3136       H  0.74628009  0.65450527  0.05963877     0.04300
C3137       C  0.98222926  0.80488025  0.45306562     0.02300
C3138       C  0.53777637  0.84230960  0.45407381     0.02300
C3139       C  0.56338341  0.87268208  0.43758535    -0.18200
C3140       C  0.53770970  0.86483127  0.41958001     0.02300
C3141       C  0.98533770  0.81981917  0.41745893     0.02300
C3142       C  0.95732901  0.79695705  0.43442146    -0.18200
H3143       H  0.91516537  0.77271766  0.43294949     0.04300
H3144       H  0.60531482  0.90053441  0.43816224     0.04300
C3145       C  0.97187455  0.76958440  0.05180047     0.02300
C3146       C  0.52845257  0.79181707  0.05298296     0.02300
C3147       C  0.55020690  0.80525432  0.07245957    -0.18200
C3148       C  0.52059412  0.80075515  0.08887144     0.02300
C3149       C  0.97098725  0.78903814  0.08703953     0.02300
C3150       C  0.94535842  0.76779271  0.06894953    -0.18200
H3151       H  0.90378777  0.75172323  0.06803325     0.04300
H3152       H  0.59176920  0.82379854  0.07486104     0.04300
C3153       C  0.61639224  0.94850262  0.30096886    -0.19800
C3154       C  0.57626776  0.89864625  0.30685893     0.36400
C3155       C  0.56855625  0.88876873  0.32725550    -0.25800
C3156       C  0.59884561  0.92860251  0.34140568     0.02800
C3157       C  0.64016565  0.97755408  0.33536036     0.27600
C3158       C  0.64933590  0.98649109  0.31516821    -0.24900
N3159       N  0.54544114  0.85813364  0.29229717    -0.82300
H3160       H  0.53857403  0.85040673  0.33210993     0.13400
C3161       C  0.58942826  0.91775722  0.36257693     0.02800
N3162       N  0.67399654  0.01719383  0.34975514    -0.80900
H3163       H  0.68163644  0.02406103  0.31042882     0.18200
C3164       C  0.60314809  0.88508212  0.37145216    -0.25700
C3165       C  0.59238813  0.87185946  0.39132943     0.36300
C3166       C  0.56793367  0.89210437  0.40228821    -0.19800
C3167       C  0.55962469  0.92896875  0.39408709    -0.25000
C3168       C  0.56804675  0.94031585  0.37409796     0.27700
H3169       H  0.62090130  0.86880647  0.36276911     0.13400
N3170       N  0.60459302  0.83643565  0.39982727    -0.82300
H3171       H  0.54123179  0.94467322  0.40268473     0.18300
N3172       N  0.55181587  0.97225534  0.36551069    -0.80900
H3173       H  0.57041996  0.80352570  0.40487875     0.33900
H3174       H  0.62970337  0.85520752  0.41204801     0.38400
H3175       H  0.51208281  0.95464780  0.36799559     0.33900
H3176       H  0.57118508  0.00811912  0.37327119     0.30600
H3177       H  0.70424874  0.04995403  0.34275982     0.33900
H3178       H  0.65286776  0.02922021  0.35750312     0.30600
H3179       H  0.51802230  0.82343535  0.29923689     0.38400
H3180       H  0.52464510  0.86983749  0.28378855     0.33900
C3181       C  0.60697877  0.90677568  0.20964941    -0.19800
C3182       C  0.64155293  0.89806877  0.19952962     0.36400
C3183       C  0.62973006  0.87915167  0.17970223    -0.25800
C3184       C  0.58323881  0.86754623  0.17025220     0.02800
C3185       C  0.54578155  0.86854097  0.18181191     0.27600
C3186       C  0.55764023  0.88748147  0.20127872    -0.24900
N3187       N  0.68889886  0.90996197  0.20921061    -0.82300
H3188       H  0.65766225  0.87564392  0.17139498     0.13400
C3189       C  0.57488846  0.85623424  0.14843530     0.02800
N3190       N  0.49629487  0.85351034  0.17368626    -0.80900
H3191       H  0.52898986  0.89094076  0.20921952     0.18200
C3192       C  0.58302907  0.81885335  0.14001110    -0.25700
C3193       C  0.56842331  0.80178079  0.12024169     0.36300
C3194       C  0.54704596  0.82409075  0.10832690    -0.19800
C3195       C  0.54487889  0.86587324  0.11601845    -0.25000
C3196       C  0.55811346  0.88194399  0.13594407     0.27700
H3197       H  0.59735508  0.80014858  0.14924156     0.13400
N3198       N  0.07199301  0.76248451  0.11298038    -0.82300
H3199       H  0.52991319  0.88403523  0.10667761     0.18300
N3200       N  0.55318078  0.92331306  0.14362334    -0.80900
H3201       H  0.03459682  0.73342383  0.10793093     0.33900
H3202       H  0.09720340  0.77458114  0.10105035     0.38400
H3203       H  0.58981363  0.95363032  0.14870292     0.33900
H3204       H  0.54079426  0.93831622  0.13248854     0.30600
H3205       H  0.46849323  0.82635401  0.18334181     0.33900
H3206       H  0.49457014  0.88686230  0.17467047     0.30600
H3207       H  0.67880831  0.88577341  0.22153662     0.38400
H3208       H  0.70831958  0.89908641  0.19992195     0.33900
C3209       C  0.68444206  0.62608483  0.29843437    -0.19800
C3210       C  0.72896539  0.66930658  0.30730676     0.36400
C3211       C  0.73216748  0.67539767  0.32819747    -0.25800
C3212       C  0.69190314  0.63845522  0.34046759     0.02800
C3213       C  0.64549235  0.59796294  0.33110150     0.27600
C3214       C  0.64219191  0.59260576  0.31036021    -0.24900
N3215       N  0.77018809  0.70700103  0.29509088    -0.82300
H3216       H  0.76656554  0.70900016  0.33490390     0.13400
C3217       C  0.69925579  0.64342340  0.36275692     0.02800
N3218       N  0.60189751  0.56088330  0.34244358    -0.80900
H3219       H  0.60711827  0.55960236  0.30362805     0.18200
C3220       C  0.65875843  0.63426413  0.37532272    -0.25700
C3221       C  0.66710975  0.64375176  0.39587580     0.36300
C3222       C  0.71824920  0.66840050  0.40394038    -0.19800
C3223       C  0.75707278  0.67173656  0.39209216    -0.25000
C3224       C  0.74745692  0.65802258  0.37176213     0.27700
H3225       H  0.62079023  0.62213525  0.36934324     0.13400
N3226       N  0.62334961  0.62979793  0.40807073    -0.82300
H3227       H  0.79625181  0.69001645  0.39814562     0.18300
N3228       N  0.78683467  0.65924309  0.36019316    -0.80900
H3229       H  0.60760740  0.65148369  0.40367436     0.33900
H3230       H  0.63460481  0.63866426  0.42302970     0.38400
H3231       H  0.82147745  0.69573492  0.36237114     0.33900
H3232       H  0.79165363  0.62983855  0.36544389     0.30600
H3233       H  0.57061661  0.56449133  0.33887079     0.33900
H3234       H  0.59100487  0.52338684  0.33787779     0.30600
H3235       H  0.75458752  0.72255504  0.28560748     0.38400
H3236       H  0.79815198  0.73843999  0.30390001     0.33900
C3237       C  0.70005290  0.61175272  0.19898864    -0.19800
C3238       C  0.70107560  0.65471420  0.19096109     0.36400
C3239       C  0.70650893  0.66291622  0.17027728    -0.25800
C3240       C  0.70760527  0.62678035  0.15742750     0.02800
C3241       C  0.70786280  0.58435275  0.16568312     0.27600
C3242       C  0.70518185  0.57782442  0.18634850    -0.24900
N3243       N  0.69576844  0.68921432  0.20384317    -0.82300
H3244       H  0.70765811  0.69631207  0.16406941     0.13400
C3245       C  0.70658247  0.63301895  0.13545764     0.02800
N3246       N  0.70839720  0.54652946  0.15303779    -0.80900
H3247       H  0.70436616  0.54439971  0.19244169     0.18200
C3248       C  0.74908600  0.67700243  0.12675437    -0.25700
C3249       C  0.74859439  0.68688783  0.10644765     0.36300
C3250       C  0.70453611  0.65225890  0.09434791    -0.19800
C3251       C  0.66364632  0.60672278  0.10269884    -0.25000
C3252       C  0.66349325  0.59714344  0.12303916     0.27700
H3253       H  0.78262165  0.70443270  0.13585533     0.13400
N3254       N  0.79298878  0.73281715  0.09856385    -0.82300
H3255       H  0.62954284  0.58024678  0.09359392     0.18300
N3256       N  0.61793191  0.55153088  0.13042098    -0.80900
H3257       H  0.80819722  0.72109483  0.08741776     0.33900
H3258       H  0.78126046  0.75620996  0.09217421     0.38400
H3259       H  0.58603983  0.55480808  0.12765986     0.33900
H3260       H  0.62052882  0.54688660  0.14557605     0.30600
H3261       H  0.74045041  0.54458358  0.15701746     0.33900
H3262       H  0.67498699  0.50991101  0.15573457     0.30600
H3263       H  0.72621506  0.70571547  0.21438084     0.38400
H3264       H  0.69955258  0.71985057  0.19557193     0.33900
C3265       C  0.95798396  0.81024319  0.39821942    -0.19800
C3266       C  0.93762767  0.84041316  0.39255314     0.36400
C3267       C  0.92725934  0.84277740  0.37233906    -0.25800
C3268       C  0.93879735  0.81721246  0.35783528     0.02800
C3269       C  0.95868449  0.78695152  0.36386969     0.27600
C3270       C  0.96483232  0.78097611  0.38400985    -0.24900
N3271       N  0.92934471  0.86976660  0.40720432    -0.82300
H3272       H  0.91246890  0.86664271  0.36776625     0.13400
C3273       C  0.93428411  0.82682947  0.33659205     0.02800
N3274       N  0.97631128  0.76520740  0.34968178    -0.80900
H3275       H  0.48547412  0.76761011  0.38953642     0.18200
C3276       C  0.95626925  0.87874862  0.33067030    -0.25700
C3277       C  0.95071710  0.89049689  0.31117326     0.36300
C3278       C  0.92302341  0.84964551  0.29705484    -0.19800
C3279       C  0.90373725  0.79783453  0.30260585    -0.25000
C3280       C  0.90830272  0.78593600  0.32230795     0.27700
H3281       H  0.97720824  0.91061862  0.34135090     0.13400
N3282       N  0.97089751  0.94385237  0.30615045    -0.82300
H3283       H  0.88284353  0.76616114  0.29179727     0.18300
N3284       N  0.88477848  0.73232349  0.32781489    -0.80900
H3285       H  0.01112582  0.96524922  0.30881975     0.33900
H3286       H  0.95487387  0.95825136  0.31580083     0.38400
H3287       H  0.84507740  0.71215414  0.32426098     0.33900
H3288       H  0.90091116  0.71611450  0.31916370     0.30600
H3289       H  0.51423688  0.77769671  0.35380392     0.33900
H3290       H  0.95524391  0.72528133  0.35213584     0.30600
H3291       H  0.96512043  0.89711911  0.41396761     0.38400
H3292       H  0.91604872  0.89147746  0.40042748     0.33900
C3293       C  0.89156329  0.83653152  0.20032018    -0.19800
C3294       C  0.86132956  0.78495086  0.19278450     0.36400
C3295       C  0.85369980  0.77568959  0.17222581    -0.25800
C3296       C  0.88451864  0.81536494  0.15874722     0.02800
C3297       C  0.91284394  0.86782865  0.16615639     0.27600
C3298       C  0.91510160  0.87773891  0.18672910    -0.24900
N3299       N  0.84012267  0.74160067  0.20592889    -0.82300
H3300       H  0.82588308  0.73633678  0.16702599     0.13400
C3301       C  0.89607005  0.80098303  0.13884994     0.02800
N3302       N  0.94291342  0.91106072  0.15329825    -0.80900
H3303       H  0.93639253  0.91804151  0.19206328     0.18200
C3304       C  0.90200882  0.83068865  0.12192531    -0.25700
C3305       C  0.92401039  0.82584212  0.10453684     0.36300
C3306       C  0.94080248  0.79059926  0.10382795    -0.19800
C3307       C  0.93132278  0.75813763  0.11986513    -0.25000
C3308       C  0.90911033  0.76246167  0.13709328     0.27700
H3309       H  0.89129580  0.85926801  0.12232679     0.13400
N3310       N  0.93065617  0.85857914  0.08811808    -0.82300
H3311       H  0.94304857  0.73017172  0.11926834     0.18300
N3312       N  0.90352712  0.72870768  0.15283515    -0.80900
H3313       H  0.90964137  0.83460151  0.07588092     0.33900
H3314       H  0.97006151  0.88072507  0.08462983     0.38400
H3315       H  0.92301362  0.74962500  0.16571011     0.33900
H3316       H  0.86440379  0.70323479  0.15566447     0.30600
H3317       H  0.98179397  0.93068518  0.15812763     0.33900
H3318       H  0.93084323  0.93715598  0.15508790     0.30600
H3319       H  0.80032006  0.71789033  0.20298313     0.38400
H3320       H  0.85617243  0.71971452  0.20234620     0.33900
C3321       C  0.81723376  0.94322320  0.29154591    -0.19800
C3322       C  0.85319975  0.98377219  0.30445624     0.36400
C3323       C  0.83676173  0.98823871  0.32301727    -0.25800
C3324       C  0.78519115  0.95390938  0.32846910     0.02800
C3325       C  0.74706123  0.92184824  0.31404872     0.27600
C3326       C  0.76369306  0.91668723  0.29538623    -0.24900
N3327       N  0.90679236  0.01775284  0.29947357    -0.82300
H3328       H  0.86490213  0.01628009  0.33368839     0.13400
C3329       C  0.77421602  0.94857758  0.34964949     0.02800
N3330       N  0.69291229  0.89103809  0.31897038    -0.80900
H3331       H  0.73554580  0.88773314  0.28480696     0.18200
C3332       C  0.74327498  0.96518966  0.35716869    -0.25700
C3333       C  0.74222970  0.97249960  0.37752076     0.36300
C3334       C  0.77199926  0.96170727  0.39039296    -0.19800
C3335       C  0.79738853  0.93825902  0.38306116    -0.25000
C3336       C  0.79979717  0.93283220  0.36258498     0.27700
H3337       H  0.72380781  0.97642356  0.34694682     0.13400
N3338       N  0.72205567  0.49377345  0.38365977    -0.82300
H3339       H  0.81970541  0.92934727  0.39304376     0.18300
N3340       N  0.83064130  0.91439592  0.35484509    -0.80900
H3341       H  0.75153586  0.53229877  0.38715431     0.33900
H3342       H  0.69959763  0.47728091  0.39622913     0.38400
H3343       H  0.86854397  0.93816835  0.36063132     0.33900
H3344       H  0.81560414  0.87659375  0.35996928     0.30600
H3345       H  0.67019506  0.86918137  0.30659292     0.33900
H3346       H  0.68816778  0.86409605  0.32970268     0.30600
H3347       H  0.92967189  0.01554528  0.31061909     0.38400
H3348       H  0.91552487  0.05613679  0.29963315     0.33900
C3349       C  0.76277981  0.94596602  0.10580266    -0.19800
C3350       C  0.72809654  0.94599995  0.11914550     0.36400
C3351       C  0.73090887  0.93457254  0.13900185    -0.25800
C3352       C  0.76662407  0.92156038  0.14507849     0.02800
C3353       C  0.79599402  0.91473773  0.13086605     0.27600
C3354       C  0.79298464  0.92603958  0.11113028    -0.24900
N3355       N  0.69258423  0.96042845  0.11253131    -0.82300
H3356       H  0.70744496  0.93855447  0.14978874     0.13400
C3357       C  0.77482818  0.91681536  0.16623022     0.02800
N3358       N  0.83166946  0.90004526  0.13662306    -0.80900
H3359       H  0.81878361  0.92515513  0.10048751     0.18200
C3360       C  0.77053156  0.87116032  0.17248115    -0.25700
C3361       C  0.78440414  0.86657854  0.19155771     0.36300
C3362       C  0.80336957  0.90926829  0.20489349    -0.19800
C3363       C  0.80827152  0.95563429  0.19894678    -0.25000
C3364       C  0.79238567  0.95890601  0.17971417     0.27700
H3365       H  0.75870390  0.83957976  0.16230163     0.13400
N3366       N  0.78332112  0.82020304  0.19687156    -0.82300
H3367       H  0.82352698  0.98867859  0.20920365     0.18300
N3368       N  0.79527865  0.00530818  0.17389147    -0.80900
H3369       H  0.75445582  0.80035772  0.20729410     0.33900
H3370       H  0.77288555  0.79481309  0.18463483     0.38400
H3371       H  0.83363887  0.03544854  0.17671610     0.33900
H3372       H  0.77175479  0.01073996  0.18337580     0.30600
H3373       H  0.82047571  0.86521445  0.12903815     0.33900
H3374       H  0.86858761  0.92912268  0.13186541     0.30600
H3375       H  0.66875874  0.93366363  0.10133845     0.38400
H3376       H  0.66757539  0.95532442  0.12391140     0.33900
C3377       C  0.85994967  0.56870781  0.39731517    -0.19800
C3378       C  0.86026753  0.61245581  0.38984323     0.36400
C3379       C  0.88050333  0.63144949  0.37112313    -0.25800
C3380       C  0.90232546  0.60936523  0.35994370     0.02800
C3381       C  0.90964965  0.57162198  0.36858749     0.27600
C3382       C  0.88784124  0.55117792  0.38714076    -0.24900
N3383       N  0.83910810  0.63753035  0.40048692    -0.82300
H3384       H  0.87848059  0.66321997  0.36507547     0.13400
C3385       C  0.91622974  0.62541937  0.33911317     0.02800
N3386       N  0.93751642  0.55299755  0.35820839    -0.80900
H3387       H  0.89101549  0.52017415  0.39338739     0.18200
C3388       C  0.96831954  0.66089723  0.33455658    -0.25700
C3389       C  0.98259830  0.67949723  0.31523330     0.36300
C3390       C  0.94479539  0.65722146  0.29968527    -0.19800
C3391       C  0.89243933  0.62151809  0.30419846    -0.25000
C3392       C  0.87768486  0.60712803  0.32394897     0.27700
H3393       H  0.99751458  0.67600208  0.34635451     0.13400
N3394       N  0.03584180  0.71898317  0.31118728    -0.82300
H3395       H  0.86322089  0.60405072  0.29235360     0.18300
N3396       N  0.82381718  0.57315156  0.32853463    -0.80900
H3397       H  0.03685389  0.75235482  0.30654711     0.33900
H3398       H  0.05884753  0.73001494  0.32417921     0.38400
H3399       H  0.81234443  0.11319356  0.32438611     0.33900
H3400       H  0.81165919  0.05908878  0.31825210     0.30600
H3401       H  0.93827813  0.52420781  0.36638834     0.33900
H3402       H  0.97612369  0.58429828  0.35709377     0.30600
H3403       H  0.86233767  0.65653053  0.41308784     0.38400
H3404       H  0.80122118  0.60970060  0.40470132     0.33900
C3405       C  0.92722860  0.66038856  0.20347789    -0.19800
C3406       C  0.87337619  0.63223636  0.19953512     0.36400
C3407       C  0.85520343  0.62072533  0.17965794    -0.25800
C3408       C  0.88970225  0.63075084  0.16416623     0.02800
C3409       C  0.94345838  0.66377305  0.16808436     0.27600
C3410       C  0.96163917  0.67935218  0.18764289    -0.24900
N3411       N  0.83769330  0.61367355  0.21562410    -0.82300
H3412       H  0.81397448  0.60028090  0.17644793     0.13400
C3413       C  0.86967835  0.60505650  0.14429096     0.02800
N3414       N  0.97942098  0.68200541  0.15217202    -0.80900
H3415       H  0.00305365  0.70276984  0.19060482     0.18200
C3416       C  0.83148632  0.60893442  0.13405014    -0.25700
C3417       C  0.81248137  0.58509293  0.11536433     0.36300
C3418       C  0.82952283  0.55456293  0.10708816    -0.19800
C3419       C  0.86683076  0.54952656  0.11731855    -0.25000
C3420       C  0.88682218  0.57419410  0.13586153     0.27700
H3421       H  0.81542051  0.62968731  0.14049605     0.13400
N3422       N  0.77530031  0.59136570  0.10477670    -0.82300
H3423       H  0.87629582  0.02536161  0.11496731     0.18300
N3424       N  0.92255435  0.56564934  0.14651828    -0.80900
H3425       H  0.79261501  0.63131186  0.10226904     0.33900
H3426       H  0.74313114  0.57837772  0.11374220     0.38400
H3427       H  0.88845974  0.01761672  0.15293311     0.33900
H3428       H  0.90449772  0.52534277  0.14858489     0.30600
H3429       H  0.00048204  0.72292939  0.15249460     0.33900
H3430       H  0.00544334  0.67032436  0.15484897     0.30600
H3431       H  0.84316672  0.64639017  0.22331374     0.38400
H3432       H  0.79931877  0.59273342  0.21012708     0.33900
C3433       C  0.63100364  0.70719214  0.29765215    -0.19800
C3434       C  0.60342020  0.67563551  0.31400923     0.36400
C3435       C  0.62311863  0.69299762  0.33355716    -0.25800
C3436       C  0.67152663  0.73968809  0.33753472     0.02800
C3437       C  0.70161202  0.76775178  0.32097913     0.27600
C3438       C  0.68028228  0.75283631  0.30144627    -0.24900
N3439       N  0.55479316  0.62637149  0.31087108    -0.82300
H3440       H  0.60072645  0.66889403  0.34582161     0.13400
C3441       C  0.69050186  0.75557791  0.35896529     0.02800
N3442       N  0.75402686  0.81119091  0.32381308    -0.80900
H3443       H  0.70246673  0.77718719  0.28915963     0.18200
C3444       C  0.74176038  0.77185769  0.36466919    -0.25700
C3445       C  0.75759922  0.77807994  0.38476352     0.36300
C3446       C  0.72152448  0.76472609  0.39986335    -0.19800
C3447       C  0.67216948  0.75458288  0.39452311    -0.25000
C3448       C  0.65658087  0.75073341  0.37426445     0.27700
H3449       H  0.76943914  0.77676491  0.35374654     0.13400
N3450       N  0.81034334  0.79611435  0.38992207    -0.82300
H3451       H  0.64460124  0.74623536  0.40608905     0.18300
N3452       N  0.60585608  0.74029590  0.36920816    -0.80900
H3453       H  0.82071035  0.77315079  0.38226607     0.33900
H3454       H  0.83335838  0.83428740  0.38479831     0.38400
H3455       H  0.58554166  0.73711875  0.38202190     0.33900
H3456       H  0.61114697  0.77269528  0.36156776     0.30600
H3457       H  0.77839353  0.80281835  0.31625156     0.33900
H3458       H  0.75743979  0.84369399  0.31727696     0.30600
H3459       H  0.52839940  0.63361623  0.30419536     0.38400
H3460       H  0.53849302  0.60925507  0.32441493     0.33900
C3461       C  0.64226517  0.69633124  0.09297737    -0.19800
C3462       C  0.59405934  0.65635261  0.10047128     0.36400
C3463       C  0.58442467  0.65575578  0.12106949    -0.25800
C3464       C  0.62316118  0.69294414  0.13448235     0.02800
C3465       C  0.67022135  0.73339053  0.12626320     0.27600
C3466       C  0.67768368  0.73636080  0.10581358    -0.24900
N3467       N  0.55611509  0.61565789  0.08731595    -0.82300
H3468       H  0.54706090  0.62559631  0.12660147     0.13400
C3469       C  0.61436833  0.69085411  0.15667022     0.02800
N3470       N  0.71255285  0.77093205  0.13855224    -0.80900
H3471       H  0.71457449  0.76754532  0.10019993     0.18200
C3472       C  0.63221652  0.73776800  0.16739813    -0.25700
C3473       C  0.62660825  0.73889798  0.18807163     0.36300
C3474       C  0.60044223  0.69170038  0.19866975    -0.19800
C3475       C  0.58128494  0.64453077  0.18804035    -0.25000
C3476       C  0.58849536  0.64364613  0.16747610     0.27700
H3477       H  0.65045584  0.77436701  0.15964128     0.13400
N3478       N  0.64799325  0.78822391  0.19825559    -0.82300
H3479       H  0.56056497  0.60759679  0.19571679     0.18300
N3480       N  0.57079456  0.59439142  0.15804359    -0.80900
H3481       H  0.66924062  0.81826927  0.18833752     0.33900
H3482       H  0.67516611  0.79177367  0.20882571     0.38400
H3483       H  0.58735299  0.57724755  0.16599933     0.33900
H3484       H  0.53062742  0.57030439  0.15979738     0.30600
H3485       H  0.74457957  0.76796799  0.13602931     0.33900
H3486       H  0.72173852  0.80755560  0.13365003     0.30600
H3487       H  0.54448582  0.63317396  0.07697433     0.38400
H3488       H  0.52293260  0.58895584  0.09510348     0.33900
C3489       C  0.87095385  0.80352440  0.79499386    -0.19800
C3490       C  0.88862787  0.84610534  0.80836484     0.36400
C3491       C  0.88501545  0.83778910  0.82875929    -0.25800
C3492       C  0.86284257  0.78762847  0.83657159     0.02800
C3493       C  0.84120594  0.74454571  0.82321047     0.27600
C3494       C  0.84646361  0.75287099  0.80257784    -0.24900
N3495       N  0.91193311  0.89848912  0.80142916    -0.82300
H3496       H  0.89923275  0.87121168  0.83850293     0.13400
C3497       C  0.85623214  0.78128554  0.85852419     0.02800
N3498       N  0.81279916  0.69242805  0.83058055    -0.80900
H3499       H  0.83253447  0.71987383  0.79240752     0.18200
C3500       C  0.80763696  0.74251409  0.86608668    -0.25700
C3501       C  0.79619612  0.74317313  0.88595478     0.36300
C3502       C  0.83314239  0.78366952  0.89845003    -0.19800
C3503       C  0.88300137  0.81921428  0.89183139    -0.25000
C3504       C  0.89504357  0.81828149  0.87202143     0.27700
H3505       H  0.77604814  0.71436886  0.85646871     0.13400
N3506       N  0.74565462  0.70512402  0.89306115    -0.82300
H3507       H  0.91164278  0.85007217  0.90174308     0.18300
N3508       N  0.94613405  0.85667643  0.86566971    -0.80900
H3509       H  0.73921333  0.66807362  0.89071609     0.33900
H3510       H  0.71817197  0.70668352  0.88425306     0.38400
H3511       H  0.95220029  0.89346781  0.86860925     0.33900
H3512       H  0.97260521  0.85345354  0.87457121     0.30600
H3513       H  0.79816828  0.66604118  0.81874820     0.33900
H3514       H  0.83796735  0.68650597  0.83913168     0.30600
H3515       H  0.88944656  0.91258174  0.80640377     0.38400
H3516       H  0.94906194  0.92150804  0.80796010     0.33900
C3517       C  0.63749417  0.95360431  0.90283157    -0.19800
C3518       C  0.63470058  0.91391308  0.89113128     0.36400
C3519       C  0.61151583  0.90353419  0.87209508    -0.25800
C3520       C  0.58215383  0.92448413  0.86568379     0.02800
C3521       C  0.57625730  0.95638075  0.87970190     0.27600
C3522       C  0.60677556  0.97333963  0.89741898    -0.24900
N3523       N  0.65949917  0.88772021  0.89814542    -0.82300
H3524       H  0.61886736  0.88083791  0.86203681     0.13400
C3525       C  0.56194096  0.91500019  0.84423894     0.02800
N3526       N  0.53792382  0.96966551  0.87725333    -0.80900
H3527       H  0.61444317  0.50268128  0.90487679     0.18200
C3528       C  0.55998898  0.95386332  0.83357803    -0.25700
C3529       C  0.54494795  0.94752430  0.81326900     0.36300
C3530       C  0.53578898  0.90299502  0.80252551    -0.19800
C3531       C  0.53677130  0.86382403  0.81319653    -0.25000
C3532       C  0.54678905  0.86800833  0.83376741     0.27700
H3533       H  0.56902661  0.98918206  0.84107881     0.13400
N3534       N  0.53620371  0.98474381  0.80401709    -0.82300
H3535       H  0.52689609  0.82782382  0.80566777     0.18300
N3536       N  0.53973542  0.82347388  0.84405762    -0.80900
H3537       H  0.54259303  0.01401099  0.81414507     0.33900
H3538       H  0.56321840  0.00293594  0.79290966     0.38400
H3539       H  0.51235900  0.81365761  0.85498386     0.33900
H3540       H  0.52528546  0.79102935  0.83447989     0.30600
H3541       H  0.52188801  0.45538534  0.86302699     0.33900
H3542       H  0.55698480  0.00944974  0.87395308     0.30600
H3543       H  0.63864804  0.86502719  0.91024166     0.38400
H3544       H  0.65812161  0.86229155  0.88734722     0.33900
C3545       C  0.56262647  0.90465740  0.70491165    -0.19800
C3546       C  0.56605073  0.94231032  0.69159200     0.36400
C3547       C  0.58119739  0.94315864  0.67182938    -0.25800
C3548       C  0.59222323  0.90661598  0.66461037     0.02800
C3549       C  0.58731832  0.86848728  0.67792801     0.27600
C3550       C  0.57444827  0.86893128  0.69775441    -0.24900
N3551       N  0.55257297  0.97871784  0.69770694    -0.82300
H3552       H  0.58335741  0.97211506  0.66203757     0.13400
C3553       C  0.61109069  0.91052923  0.64370043     0.02800
N3554       N  0.59039565  0.82574374  0.67120734    -0.80900
H3555       H  0.57020124  0.83814854  0.70723417     0.18200
C3556       C  0.65753156  0.91244437  0.64053384    -0.25700
C3557       C  0.68005617  0.92232683  0.62174191     0.36300
C3558       C  0.65735670  0.93288759  0.60552466    -0.19800
C3559       C  0.60896307  0.92718998  0.60819983    -0.25000
C3560       C  0.58560582  0.91581844  0.62699773     0.27700
H3561       H  0.67804803  0.90889414  0.65295824     0.13400
N3562       N  0.72664539  0.92240779  0.61958216    -0.82300
H3563       H  0.59074729  0.93484286  0.59591670     0.18300
N3564       N  0.53613786  0.91000073  0.62901229    -0.80900
H3565       H  0.75590106  0.95888392  0.61450166     0.33900
H3566       H  0.71934867  0.89434719  0.60870851     0.38400
H3567       H  0.53919064  0.94416175  0.62411576     0.33900
H3568       H  0.50956584  0.87942486  0.61949048     0.30600
H3569       H  0.61450628  0.82200375  0.68128815     0.33900
H3570       H  0.55330729  0.79206988  0.67281111     0.30600
H3571       H  0.58460255  0.01654623  0.69534891     0.38400
H3572       H  0.52182071  0.97289672  0.68855226     0.33900
C3573       C  0.88571417  0.80432384  0.69703164    -0.19800
C3574       C  0.83516432  0.78721606  0.69035857     0.36400
C3575       C  0.82267848  0.77625843  0.66992966    -0.25800
C3576       C  0.86025245  0.78331723  0.65616120     0.02800
C3577       C  0.91108136  0.80055821  0.66320102     0.27600
C3578       C  0.92277717  0.81077295  0.68344970    -0.24900
N3579       N  0.79718486  0.78123730  0.70425760    -0.82300
H3580       H  0.78385418  0.76341885  0.66460820     0.13400
C3581       C  0.84537074  0.77295579  0.63470664     0.02800
N3582       N  0.95165398  0.80710945  0.65057529    -0.80900
H3583       H  0.96147990  0.82337281  0.68870784     0.18200
C3584       C  0.87334897  0.81215170  0.62075541    -0.25700
C3585       C  0.85846069  0.80362716  0.60061729     0.36300
C3586       C  0.81209677  0.75639181  0.59455157    -0.19800
C3587       C  0.78735998  0.71550863  0.60802045    -0.25000
C3588       C  0.80345162  0.72384192  0.62806524     0.27700
H3589       H  0.90663068  0.84980067  0.62558416     0.13400
N3590       N  0.89065394  0.84373028  0.58676688    -0.82300
H3591       H  0.75299342  0.67844870  0.60333822     0.18300
N3592       N  0.77725150  0.68224525  0.64173669    -0.80900
H3593       H  0.89132670  0.87758133  0.59047196     0.33900
H3594       H  0.87580774  0.83273160  0.57225430     0.38400
H3595       H  0.73766558  0.66828878  0.64086040     0.33900
H3596       H  0.78246935  0.65290056  0.63673111     0.30600
H3597       H  0.96355458  0.78294337  0.65600732     0.33900
H3598       H  0.93833387  0.79386119  0.63610788     0.30600
H3599       H  0.79000518  0.75142292  0.71398179     0.38400
H3600       H  0.76195804  0.76925989  0.69691627     0.33900
C3601       C  0.61730317  0.68091261  0.79747472    -0.19800
C3602       C  0.57505232  0.68700169  0.79984365     0.36400
C3603       C  0.56182520  0.69391298  0.81920147    -0.25800
C3604       C  0.58773713  0.69114868  0.83624334     0.02800
C3605       C  0.62919582  0.68403841  0.83367835     0.27600
C3606       C  0.64442244  0.68078898  0.81442005    -0.24900
N3607       N  0.54665811  0.68730146  0.78269597    -0.82300
H3608       H  0.53089633  0.70090486  0.82104899     0.13400
C3609       C  0.57329741  0.69826466  0.85668143     0.02800
N3610       N  0.65552622  0.67966847  0.85066267    -0.80900
H3611       H  0.67703196  0.67648218  0.81255924     0.18200
C3612       C  0.55275249  0.65653093  0.87001121    -0.25700
C3613       C  0.53882811  0.66126382  0.88939310     0.36300
C3614       C  0.54463527  0.70896367  0.89577591    -0.19800
C3615       C  0.56731814  0.75134131  0.88267892    -0.25000
C3616       C  0.58259162  0.74691338  0.86346511     0.27700
H3617       H  0.54709407  0.61955370  0.86524312     0.13400
N3618       N  0.01275458  0.61351279  0.90403382    -0.82300
H3619       H  0.57196977  0.78789412  0.88723021     0.18300
N3620       N  0.60772167  0.79264155  0.85131831    -0.80900
H3621       H  0.97608254  0.60105508  0.90945158     0.33900
H3622       H  0.03963025  0.63014939  0.91589761     0.38400
H3623       H  0.64201023  0.82112178  0.85855479     0.33900
H3624       H  0.61897808  0.78596628  0.83769135     0.30600
H3625       H  0.68635237  0.67657402  0.84617604     0.33900
H3626       H  0.67217084  0.71450632  0.85884930     0.30600
H3627       H  0.52774996  0.64998819  0.77606869     0.38400
H3628       H  0.51758458  0.69349113  0.78695166     0.33900
C3629       C  0.75294825  0.53203615  0.89674873    -0.19800
C3630       C  0.76915595  0.58392376  0.89204544     0.36400
C3631       C  0.77301299  0.59786132  0.87214582    -0.25800
C3632       C  0.75501502  0.55941118  0.85708023     0.02800
C3633       C  0.74384307  0.50926296  0.86168948     0.27600
C3634       C  0.74850817  0.49826841  0.88148915    -0.24900
N3635       N  0.77807756  0.62192073  0.90694452    -0.82300
H3636       H  0.78410186  0.63725015  0.86854924     0.13400
C3637       C  0.73928701  0.56915746  0.83762533     0.02800
N3638       N  0.72441798  0.46889604  0.84659905    -0.80900
H3639       H  0.74291013  0.46113043  0.88518648     0.18200
C3640       C  0.76270409  0.56671451  0.82025439    -0.25700
C3641       C  0.74781233  0.57589074  0.80159257     0.36300
C3642       C  0.70951658  0.58809942  0.80062360    -0.19800
C3643       C  0.68354687  0.58652864  0.81775841    -0.25000
C3644       C  0.69858653  0.57816556  0.83635191     0.27700
H3645       H  0.79393226  0.55995150  0.82146210     0.13400
N3646       N  0.77232810  0.57468105  0.78379191    -0.82300
H3647       H  0.65202581  0.59285346  0.81668373     0.18300
N3648       N  0.67205187  0.57782510  0.85387215    -0.80900
H3649       H  0.79978984  0.56534021  0.78718063     0.33900
H3650       H  0.74375233  0.54408339  0.77476659     0.38400
H3651       H  0.64099446  0.58172369  0.85009336     0.33900
H3652       H  0.69763298  0.61126251  0.86232898     0.30600
H3653       H  0.71554806  0.43354838  0.85281981     0.33900
H3654       H  0.68922764  0.46236865  0.84098583     0.30600
H3655       H  0.74485541  0.60683318  0.91551853     0.38400
H3656       H  0.80932990  0.62938078  0.91602339     0.33900
C3657       C  0.72764925  0.58428768  0.71188889    -0.19800
C3658       C  0.77433010  0.61960498  0.70210261     0.36400
C3659       C  0.77981888  0.61003320  0.68209941    -0.25800
C3660       C  0.74126470  0.56361657  0.67247465     0.02800
C3661       C  0.70247736  0.52301156  0.68407408     0.27600
C3662       C  0.69427752  0.53445046  0.70327162    -0.24900
N3663       N  0.81500315  0.66599535  0.71202902    -0.82300
H3664       H  0.81257225  0.63995811  0.67388029     0.13400
C3665       C  0.73833604  0.55926418  0.65040926     0.02800
N3666       N  0.66982062  0.47045928  0.67653614    -0.80900
H3667       H  0.66027682  0.50486656  0.71104876     0.18200
C3668       C  0.77727102  0.55862347  0.64003442    -0.25700
C3669       C  0.77080857  0.54572997  0.61968741     0.36300
C3670       C  0.72638191  0.53672810  0.60924709    -0.19800
C3671       C  0.69093510  0.54455856  0.61903916    -0.25000
C3672       C  0.69611674  0.55523594  0.63959001     0.27700
H3673       H  0.81202919  0.56710703  0.64788570     0.13400
N3674       N  0.80843360  0.54000295  0.60967249    -0.82300
H3675       H  0.65847703  0.54097809  0.61072479     0.18300
N3676       N  0.66084265  0.56555773  0.64921809    -0.80900
H3677       H  0.81257899  0.51222166  0.61705569     0.33900
H3678       H  0.84371108  0.57591733  0.61062405     0.38400
H3679       H  0.63189469  0.56045202  0.63920811     0.33900
H3680       H  0.64203077  0.53811084  0.66026837     0.30600
H3681       H  0.67548379  0.44626089  0.68576305     0.33900
H3682       H  0.68159441  0.46683198  0.66252090     0.30600
H3683       H  0.82249781  0.69785544  0.70355160     0.38400
H3684       H  0.84853716  0.66468949  0.71212136     0.33900
C3685       C  0.63098820  0.67157515  0.70064350    -0.19800
C3686       C  0.65906642  0.66784011  0.68500252     0.36400
C3687       C  0.64500889  0.66902509  0.66508532    -0.25800
C3688       C  0.60153267  0.67143238  0.66021409     0.02800
C3689       C  0.57136606  0.67133607  0.67594702     0.27600
C3690       C  0.58663221  0.67229989  0.69590005    -0.24900
N3691       N  0.69886622  0.65781382  0.68928937    -0.82300
H3692       H  0.66745047  0.66676423  0.65335163     0.13400
C3693       C  0.58703956  0.67197204  0.63876632     0.02800
N3694       N  0.52280246  0.66593697  0.67177835    -0.80900
H3695       H  0.56237692  0.67124550  0.70769909     0.18200
C3696       C  0.58456368  0.63571525  0.62482592    -0.25700
C3697       C  0.56981952  0.63498815  0.60473659     0.36300
C3698       C  0.55402501  0.66931536  0.59875395    -0.19800
C3699       C  0.56038711  0.70762251  0.61220875    -0.25000
C3700       C  0.57710602  0.70959845  0.63182427     0.27700
H3701       H  0.59418747  0.60783256  0.62951142     0.13400
N3702       N  0.57277469  0.60034804  0.59091219    -0.82300
H3703       H  0.54997128  0.73511969  0.60765646     0.18300
N3704       N  0.58335823  0.75015139  0.64464340    -0.80900
H3705       H  0.08573526  0.57367655  0.59465760     0.33900
H3706       H  0.04013626  0.57496407  0.58083791     0.38400
H3707       H  0.61038010  0.78597217  0.63827099     0.33900
H3708       H  0.54753619  0.74704349  0.64465667     0.30600
H3709       H  0.49432474  0.63106774  0.67826027     0.33900
H3710       H  0.52329237  0.69697059  0.67886420     0.30600
H3711       H  0.68661271  0.62113368  0.68313572     0.38400
H3712       H  0.73248832  0.68532723  0.68203104     0.33900
C3713       C  0.91455053  0.57808647  0.79509879    -0.19800
C3714       C  0.93229636  0.56297197  0.81147595     0.36400
C3715       C  0.93342436  0.58292175  0.83044631    -0.25800
C3716       C  0.91687596  0.61777840  0.83354739     0.02800
C3717       C  0.90864921  0.63964314  0.81632472     0.27600
C3718       C  0.90647576  0.61872750  0.79749967    -0.24900
N3719       N  0.94688549  0.52566504  0.80914247    -0.82300
H3720       H  0.94680062  0.57027299  0.84282559     0.13400
C3721       C  0.91038217  0.63051149  0.85462712     0.02800
N3722       N  0.90234485  0.68281285  0.81730285    -0.80900
H3723       H  0.89626773  0.63310355  0.78466862     0.18200
C3724       C  0.92347999  0.68109848  0.86023295    -0.25700
C3725       C  0.92635942  0.69563135  0.88016596     0.36300
C3726       C  0.92033939  0.66073711  0.89507206    -0.19800
C3727       C  0.89916389  0.60821041  0.88989664    -0.25000
C3728       C  0.89316708  0.59242042  0.86981149     0.27700
H3729       H  0.93545834  0.71117426  0.84953135     0.13400
N3730       N  0.45798851  0.75988021  0.88589823    -0.82300
H3731       H  0.89141845  0.58041050  0.90147458     0.18300
N3732       N  0.87169636  0.53825324  0.86489716    -0.80900
H3733       H  0.49287189  0.77849278  0.89413788     0.33900
H3734       H  0.42919860  0.75696414  0.89501440     0.38400
H3735       H  0.85963819  0.51542194  0.87764042     0.33900
H3736       H  0.83855541  0.52555263  0.85602691     0.30600
H3737       H  0.93432207  0.71449112  0.81049038     0.33900
H3738       H  0.86980699  0.67288664  0.80848201     0.30600
H3739       H  0.92972145  0.99480232  0.81962867     0.38400
H3740       H  0.98549761  0.54335932  0.81415793     0.33900
C3741       C  0.78554238  0.89078242  0.79525349    -0.19800
C3742       C  0.78309395  0.92460672  0.80897636     0.36400
C3743       C  0.78121452  0.91489784  0.82920466    -0.25800
C3744       C  0.77434558  0.86845198  0.83600071     0.02800
C3745       C  0.76755146  0.83011074  0.82202254     0.27600
C3746       C  0.77661432  0.84293782  0.80176565    -0.24900
N3747       N  0.78461510  0.97019177  0.80251264    -0.82300
H3748       H  0.78706746  0.94467140  0.83970988     0.13400
C3749       C  0.77887336  0.86302970  0.85768543     0.02800
N3750       N  0.75147045  0.77868675  0.82837771    -0.80900
H3751       H  0.77629832  0.81577707  0.79115087     0.18200
C3752       C  0.73587485  0.82398331  0.86786588    -0.25700
C3753       C  0.73940815  0.81669022  0.88825719     0.36300
C3754       C  0.78812552  0.84639744  0.89812871    -0.19800
C3755       C  0.83053868  0.88753796  0.88833635    -0.25000
C3756       C  0.82602893  0.89711329  0.86827363     0.27700
H3757       H  0.69975496  0.79922503  0.85977232     0.13400
N3758       N  0.69388745  0.77987009  0.89902907    -0.82300
H3759       H  0.86763815  0.91091783  0.89619442     0.18300
N3760       N  0.86902099  0.94112015  0.85866513    -0.80900
H3761       H  0.66190361  0.75908225  0.88932010     0.33900
H3762       H  0.69973188  0.75233359  0.90559278     0.38400
H3763       H  0.90143375  0.96081561  0.86830503     0.33900
H3764       H  0.87979328  0.92753540  0.84666410     0.30600
H3765       H  0.75520102  0.75783903  0.81684247     0.33900
H3766       H  0.77669661  0.78271805  0.83973256     0.30600
H3767       H  0.81478622  0.00237618  0.81036172     0.38400
H3768       H  0.74970041  0.96609580  0.80653681     0.33900
C3769       C  0.94846433  0.62092437  0.59968965    -0.19800
C3770       C  0.94270888  0.57591046  0.60818998     0.36400
C3771       C  0.93750554  0.57018730  0.62857289    -0.25800
C3772       C  0.93377874  0.60615660  0.64037518     0.02800
C3773       C  0.93304321  0.64764589  0.63155033     0.27600
C3774       C  0.94186531  0.65558795  0.61116352    -0.24900
N3775       N  0.94221206  0.53570000  0.59660100    -0.82300
H3776       H  0.93595953  0.53705706  0.63527679     0.13400
C3777       C  0.92565089  0.59601694  0.66163161     0.02800
N3778       N  0.92362140  0.68133082  0.64323815    -0.80900
H3779       H  0.94587174  0.68986600  0.60436483     0.18200
C3780       C  0.96244662  0.63151029  0.67586725    -0.25700
C3781       C  0.95714363  0.61834255  0.69611312     0.36300
C3782       C  0.91386873  0.56995022  0.70166384    -0.19800
C3783       C  0.87667759  0.53642784  0.68746988    -0.25000
C3784       C  0.88295474  0.54794206  0.66758130     0.27700
H3785       H  0.99580711  0.66826280  0.67115310     0.13400
N3786       N  0.99476588  0.65332220  0.71081819    -0.82300
H3787       H  0.84209853  0.50057201  0.69182986     0.18300
N3788       N  0.84714861  0.50955304  0.65332841    -0.80900
H3789       H  0.02416604  0.68742276  0.70413890     0.33900
H3790       H  0.97592901  0.66471301  0.72042717     0.38400
H3791       H  0.85303045  0.47881082  0.65351901     0.33900
H3792       H  0.80917963  0.49485138  0.65789239     0.30600
H3793       H  0.92238016  0.70826364  0.63404442     0.33900
H3794       H  0.88641503  0.65832703  0.64904069     0.30600
H3795       H  0.45702816  0.55447974  0.58809471     0.38400
H3796       H  0.97287808  0.53244022  0.60161892     0.33900
C3797       C  0.75656531  0.80817068  0.59601955    -0.19800
C3798       C  0.72513837  0.77438709  0.61113970     0.36400
C3799       C  0.73640582  0.79144126  0.63096752    -0.25800
C3800       C  0.77686416  0.84276194  0.63624837     0.02800
C3801       C  0.80536055  0.87768837  0.62082726     0.27600
C3802       C  0.79452402  0.86028992  0.60091576    -0.24900
N3803       N  0.68242113  0.72194553  0.60686593    -0.82300
H3804       H  0.71423949  0.76342910  0.64233630     0.13400
C3805       C  0.78800333  0.85881228  0.65779513     0.02800
N3806       N  0.84631332  0.93056756  0.62519330    -0.80900
H3807       H  0.81847524  0.88664629  0.58936205     0.18200
C3808       C  0.83931134  0.88670224  0.66549579    -0.25700
C3809       C  0.85020640  0.90318091  0.68554548     0.36300
C3810       C  0.80913619  0.89142687  0.69842305    -0.19800
C3811       C  0.75806368  0.86327065  0.69079074    -0.25000
C3812       C  0.74733678  0.84623001  0.67085286     0.27700
H3813       H  0.87125472  0.89566497  0.65596927     0.13400
N3814       N  0.90331266  0.93393499  0.69247410    -0.82300
H3815       H  0.72619221  0.85476904  0.70029702     0.18300
N3816       N  0.69486586  0.81839361  0.66359896    -0.80900
H3817       H  0.92031075  0.91240200  0.68995791     0.33900
H3818       H  0.92285915  0.96764773  0.68390750     0.38400
H3819       H  0.67247417  0.78637128  0.67274386     0.33900
H3820       H  0.68240028  0.84401636  0.66471121     0.30600
H3821       H  0.88066231  0.93616070  0.61958179     0.33900
H3822       H  0.83802329  0.95529077  0.61759574     0.30600
H3823       H  0.67696359  0.71340376  0.59165246     0.38400
H3824       H  0.69024876  0.69590568  0.61357977     0.33900
loop_ 
_geom_bond_atom_site_label_1 
_geom_bond_atom_site_label_2 
_geom_bond_distance 
_geom_bond_site_symmetry_2 
_ccdc_geom_bond_type 
O1           Ni7   1.977   1_556  S
O1           C22   1.298       .  A
O2          Ni25   1.976       .  S
O2           C11   1.317       .  A
O3           Ni7   1.786       .  S
O3          Ni25   1.874       .  S
O3          Ni19   1.882   1_554  S
O3           H26   0.961   1_554  S
C4           O21   1.322       .  A
C4           O13   1.301       .  A
C4          C127   1.531       .  S
O5          Ni24   1.930   1_554  S
O5           C11   1.288       .  A
O6          Ni24   1.976       .  S
O6            C8   1.277       .  A
Ni7          O10   2.041       .  S
Ni7          O12   1.955       .  S
C8           O18   1.274       .  A
C8          C136   1.529       .  S
O9          Ni25   1.898       .  S
O9           C15   1.297       .  A
O10          C15   1.323       .  A
C11         C246   1.491       .  S
O12          C14   1.281       .  A
O13         Ni24   1.986       .  S
C14          O20   1.309       .  A
C14         C262   1.528       .  S
C15         C277   1.512       .  S
H16          O17   0.967       .  S
O17         Ni25   1.887       .  S
O17         Ni19   1.808   1_554  S
O17         Ni24   1.850   1_554  S
O18         Ni19   1.955       .  S
Ni19         O23   1.913       .  S
Ni19         O21   1.997       .  S
O20         Ni25   1.971       .  S
C22          O23   1.294       .  A
C22         C111   1.493       .  S
O27         Ni33   1.890       .  S
O27          C48   1.272       .  A
O28         Ni51   1.978       .  S
O28          C37   1.304       .  A
O29         Ni33   1.923       .  S
O29         Ni51   1.897       .  S
O29         Ni45   1.863       .  S
O29          H52   0.968       .  S
C30          O47   1.290       .  A
C30          O39   1.290       .  A
C30         C269   1.512       .  S
O31         Ni50   1.950       .  S
O31          C37   1.284       .  A
O32         Ni50   1.938       .  S
O32          C34   1.271       .  A
Ni33         O36   1.930       .  S
Ni33         O38   1.937       .  S
C34          O44   1.296       .  A
C34         C253   1.541       .  S
O35         Ni51   2.003       .  S
O35          C41   1.322       .  A
O36          C41   1.285       .  A
C37         C120   1.521       .  S
O38          C40   1.262       .  A
O39         Ni50   1.977       .  S
C40          O46   1.266       .  A
C40          C95   1.517       .  S
C41         C104   1.528       .  S
H42          O43   0.963       .  S
O43         Ni51   1.940       .  S
O43         Ni45   1.900       .  S
O43         Ni50   1.887       .  S
O44         Ni45   2.004       .  S
Ni45         O49   1.983       .  S
Ni45         O47   1.927       .  S
O46         Ni51   1.962       .  S
C48          O49   1.307       .  A
C48         C223   1.503       .  S
O53       Ni1017   1.920   1_545  S
O53          C63   1.285       .  A
O54         Ni61   1.947       .  S
O54          C64   1.289       .  A
O55         Ni61   1.911       .  S
O55          C65   1.278       .  A
O56       Ni1017   1.882   1_545  S
O56          C66   1.272       .  A
O57       Ni1018   1.935   1_545  S
O57          C66   1.286       .  A
O58         Ni62   1.934       .  S
O58          C65   1.285       .  A
O59         Ni62   1.913       .  S
O59          C64   1.280       .  A
O60       Ni1018   1.905   1_545  S
O60          C63   1.276       .  A
Ni61       O1009   1.918       .  S
Ni61       O1012   1.890       .  S
Ni61        Ni62   2.386       .  S
Ni62       O1013   1.922       .  S
Ni62       O1016   1.899       .  S
C63         C845   1.479       .  S
C64         C942   1.507       .  S
C65         C873   1.480       .  S
C66         C914   1.456       .  S
O67         Ni75   1.931       .  S
O67          C77   1.284       .  A
O68         Ni75   1.944       .  S
O68          C78   1.287       .  A
O69         Ni75   1.910       .  S
O69          C79   1.281       .  A
O70         Ni75   1.896       .  S
O70          C80   1.275       .  A
O71         Ni76   1.915       .  S
O71          C80   1.280       .  A
O72         Ni76   1.933       .  S
O72          C79   1.285       .  A
O73         Ni76   1.918       .  S
O73          C78   1.280       .  A
O74         Ni76   1.902       .  S
O74          C77   1.279       .  A
Ni75        Ni76   2.386       .  S
C77         C789   1.489       .  S
C78         C733   1.490       .  S
C79         C817   1.494       .  S
C80         C774   1.456       .  S
O81       Ni2001   1.951       .  S
O81          C91   1.289   1_655  A
O82         Ni89   1.922       .  S
O82          C92   1.282       .  A
O83         Ni89   1.907       .  S
O83          C93   1.279       .  A
O84       Ni2001   1.919       .  S
O84          C94   1.281   1_655  A
O85       Ni2002   1.919   1_455  S
O85          C94   1.284       .  A
O86         Ni90   1.899       .  S
O86          C93   1.278       .  A
O87         Ni90   1.896       .  S
O87          C92   1.276       .  A
O88       Ni2002   1.911   1_455  S
O88          C91   1.281       .  A
Ni89       O1993   1.937       .  S
Ni89       O1996   1.927       .  S
Ni89        Ni90   2.387       .  S
Ni90       O1997   1.898       .  S
Ni90       O2000   1.897       .  S
C91         C662   1.513       .  S
C92         C705   1.465       .  S
C93         C621   1.465       .  S
C94         C677   1.495       .  S
C95         C100   1.408       .  A
C95        C2008   1.466       .  A
C96         C157   1.498       .  S
C96          C97   1.416       .  A
C96        C2007   1.468   1_455  A
C97          C98   1.390       .  A
C97         H102   1.086       .  S
C98         C830   1.492       .  S
C98        C2011   1.402   1_455  A
C99         C901   1.470       .  S
C99         C100   1.393       .  A
C99        C2010   1.401       .  A
C100        H101   1.087       .  S
C103        C153   1.521       .  S
C103        C108   1.422       .  A
C103       C1060   1.473       .  A
C104        C105   1.412       .  A
C104       C1059   1.477   1_545  A
C105        C106   1.393       .  A
C105        H110   1.084       .  S
C106        C802   1.486       .  S
C106       C1063   1.405   1_545  A
C107        C690   1.495       .  S
C107        C108   1.393       .  A
C107       C1062   1.402       .  A
C108        H109   1.083       .  S
C111        C112   1.437       .  A
C111        C116   1.407       .  A
C112        C179   1.478       .  S
C112        C113   1.412       .  A
C113        C114   1.388       .  A
C113        H118   1.085       .  S
C114        C886   1.485       .  S
C114        C115   1.404       .  A
C115        C634   1.462       .  S
C115        C116   1.386       .  A
C116        H117   1.086       .  S
C119        C156   1.514       .  S
C119        C120   1.461       .  A
C119        C124   1.415       .  A
C120        C121   1.419       .  A
C121        C122   1.406       .  A
C121        H126   1.085       .  S
C122        C718   1.489       .  S
C122        C123   1.409       .  A
C123        C929   1.492       .  S
C123        C124   1.393       .  A
C124        H125   1.085       .  S
C127        C132   1.405       .  A
C127       C1084   1.474   1_545  A
C128        C182   1.542       .  S
C128        C129   1.422       .  A
C128       C1083   1.480       .  A
C129        C130   1.408       .  A
C129        H134   1.085       .  S
C130        C649   1.509       .  S
C130       C1087   1.417       .  A
C131        C761   1.485       .  S
C131        C132   1.396       .  A
C131       C1086   1.415   1_545  A
C132        H133   1.083       .  S
C135        C183   1.548       .  S
C135        C140   1.428       .  A
C135       C2048   1.482   1_455  A
C136        C137   1.417       .  A
C136       C2047   1.484       .  A
C137        C138   1.390       .  A
C137        H142   1.083       .  S
C138        C858   1.485       .  S
C138       C2051   1.400       .  A
C139        C746   1.502       .  S
C139        C140   1.401       .  A
C139       C2050   1.401   1_455  A
C140        H141   1.083       .  S
O143       Ni149   1.947       .  S
O143        C164   1.282       .  A
O144       Ni167   2.008       .  S
O144        C153   1.316       .  A
O145       Ni149   1.886       .  S
O145       Ni167   1.904       .  S
O145       Ni161   1.928       .  S
O145        H168   0.964       .  S
C146        O163   1.316       .  A
C146        O155   1.288       .  A
C146        C224   1.527       .  S
O147       Ni166   1.889       .  S
O147        C153   1.273       .  A
O148       Ni166   1.925       .  S
O148        C150   1.260       .  A
Ni149       O152   1.964       .  S
Ni149       O154   1.926       .  S
C150        O160   1.262       .  A
C150        C270   1.494       .  S
O151       Ni167   1.949       .  S
O151        C157   1.295       .  A
O152        C157   1.289       .  A
O154        C156   1.268       .  A
O155       Ni166   1.941       .  S
C156        O162   1.292       .  A
H158        O159   0.959       .  S
O159       Ni167   1.858       .  S
O159       Ni161   1.894       .  S
O159       Ni166   1.915       .  S
O160       Ni161   1.941       .  S
Ni161       O165   1.971       .  S
Ni161       O163   1.988       .  S
O162       Ni167   1.976       .  S
C164        O165   1.300       .  A
C164        C254   1.518       .  S
O169       Ni175   1.939   1_554  S
O169        C190   1.290       .  A
O170       Ni193   1.917       .  S
O170        C179   1.295       .  A
O171       Ni175   1.854   1_554  S
O171       Ni193   1.818   1_554  S
O171       Ni187   1.900       .  S
O171        H194   0.968       .  S
C172        O189   1.307       .  A
C172        O181   1.314       .  A
C172        C245   1.497       .  S
O173       Ni192   1.942   1_556  S
O173        C179   1.285       .  A
O174       Ni192   1.956       .  S
O174        C176   1.281       .  A
Ni175       O178   1.995       .  S
Ni175       O180   1.975       .  S
C176        O186   1.306       .  A
C176        C261   1.529       .  S
O177       Ni193   1.986       .  S
O177        C183   1.318       .  A
O178        C183   1.301       .  A
O180        C182   1.281       .  A
O181       Ni192   1.995       .  S
C182        O188   1.278       .  A
H184        O185   0.960   1_556  S
O185       Ni193   1.874   1_554  S
O185       Ni187   1.885       .  S
O185       Ni192   1.796       .  S
O186       Ni187   1.968       .  S
Ni187       O191   1.990       .  S
Ni187       O189   1.924       .  S
O188       Ni193   1.981       .  S
C190        O191   1.319       .  A
C190        C278   1.510       .  S
O195      Ni2115   1.938       .  S
O195        C205   1.286       .  A
O196       Ni203   1.944       .  S
O196        C206   1.287       .  A
O197       Ni203   1.926       .  S
O197        C207   1.281       .  A
O198      Ni2115   1.915       .  S
O198        C208   1.278       .  A
O199      Ni2116   1.922       .  S
O199        C208   1.285       .  A
O200       Ni204   1.925       .  S
O200        C207   1.286       .  A
O201       Ni204   1.932       .  S
O201        C206   1.283       .  A
O202      Ni2116   1.900       .  S
O202        C205   1.276       .  A
Ni203      O2107   1.940   1_455  S
Ni203      O2110   1.934       .  S
Ni203      Ni204   2.385       .  S
Ni204      O2111   1.920   1_455  S
Ni204      O2114   1.917   1_455  S
C205        C537   1.472       .  S
C206        C565   1.505       .  S
C207        C606   1.496       .  S
C208        C522   1.478       .  S
O209       Ni217   1.928       .  S
O209        C219   1.285       .  A
O210       Ni217   1.918       .  S
O210        C220   1.282       .  A
O211       Ni217   1.897       .  S
O211        C221   1.274       .  A
O212       Ni217   1.892       .  S
O212        C222   1.276       .  A
O213       Ni218   1.892       .  S
O213        C222   1.277       .  A
O214       Ni218   1.898       .  S
O214        C221   1.276       .  A
O215       Ni218   1.926       .  S
O215        C220   1.284       .  A
O216       Ni218   1.920       .  S
O216        C219   1.282       .  A
Ni217      Ni218   2.389       .  S
C219        C453   1.493       .  S
C220        C425   1.492       .  S
C221        C410   1.457       .  S
C222        C494   1.443       .  S
C223        C228   1.415       .  A
C223       C1180   1.451   1_545  A
C224        C225   1.420       .  A
C224       C1179   1.471       .  A
C225        C226   1.397       .  A
C225        H230   1.084       .  S
C226        C466   1.489       .  S
C226       C1183   1.405       .  A
C227        C509   1.509       .  S
C227        C228   1.397       .  A
C227       C1182   1.418   1_545  A
C228        H229   1.080       .  S
O231      Ni1195   1.905       .  S
O231        C241   1.279       .  A
O232       Ni239   1.898       .  S
O232        C242   1.277       .  A
O233       Ni239   1.925       .  S
O233        C243   1.284       .  A
O234      Ni1195   1.936       .  S
O234        C244   1.285       .  A
O235      Ni1196   1.906       .  S
O235        C244   1.280       .  A
O236       Ni240   1.911       .  S
O236        C243   1.281       .  A
O237       Ni240   1.923       .  S
O237        C242   1.283       .  A
O238      Ni1196   1.917       .  S
O238        C241   1.281       .  A
Ni239      O1187   1.892   1_545  S
Ni239      O1190   1.911   1_545  S
Ni239      Ni240   2.391       .  S
Ni240      O1191   1.895   1_545  S
Ni240      O1194   1.910   1_545  S
C241        C285   1.467       .  S
C242        C369   1.470       .  S
C243        C341   1.485       .  S
C244        C313   1.492       .  S
C245        C250   1.398       .  A
C245       C1202   1.449       .  A
C246        C247   1.413       .  A
C246       C1201   1.451   1_545  A
C247        C248   1.393       .  A
C247        H252   1.085       .  S
C248        C550   1.498       .  S
C248       C1205   1.413   1_545  A
C249        C481   1.452       .  S
C249        C250   1.384       .  A
C249       C1204   1.402       .  A
C250        H251   1.087       .  S
C253        C254   1.462       .  A
C253        C258   1.424       .  A
C254        C255   1.422       .  A
C255        C256   1.406       .  A
C255        H260   1.085       .  S
C256        C578   1.511       .  S
C256        C257   1.417       .  A
C257        C354   1.503       .  S
C257        C258   1.416       .  A
C258        H259   1.084       .  S
C261        C262   1.481       .  A
C261        C266   1.422       .  A
C262        C263   1.414       .  A
C263        C264   1.394       .  A
C263        H268   1.086       .  S
C264        C382   1.488       .  S
C264        C265   1.407       .  A
C265        C593   1.497       .  S
C265        C266   1.401       .  A
C266        H267   1.085       .  S
C269        C274   1.403       .  A
C269       C2182   1.445       .  A
C270        C271   1.403       .  A
C270       C2181   1.466   1_455  A
C271        C272   1.374       .  A
C271        H276   1.089       .  S
C272        C298   1.473       .  S
C272       C2185   1.402   1_455  A
C273        C397   1.473       .  S
C273        C274   1.388       .  A
C273       C2184   1.406       .  A
C274        H275   1.084       .  S
C277        C282   1.419       .  A
C277       C2190   1.453       .  A
C278        C279   1.420       .  A
C278       C2189   1.455   1_455  A
C279        C280   1.402       .  A
C279        H284   1.084       .  S
C280        C326   1.489       .  S
C280       C2193   1.406   1_455  A
C281        C438   1.494       .  S
C281        C282   1.406       .  A
C281       C2192   1.404       .  A
C282        H283   1.084       .  S
C285        C286   1.408       .  A
C285        C290   1.403       .  A
C286        C287   1.406       .  A
C286        N291   1.438       .  S
C287        C288   1.407       .  A
C287        H292   1.081       .  S
C288        C293   1.481       .  S
C288        C289   1.409       .  A
C289        C290   1.396       .  A
C289        N294   1.434       .  S
C290        H295   1.085       .  S
N291        H311   1.046       .  S
N291        H312   1.045       .  S
C293        C296   1.405       .  A
C293        C300   1.412       .  A
N294        H309   1.044       .  S
N294        H310   1.044       .  S
C296        C297   1.400       .  A
C296        H301   1.084       .  S
C297        C298   1.410       .  A
C297        N302   1.431       .  S
C298        C299   1.391       .  A
C299        C300   1.392       .  A
C299        H303   1.083       .  S
C300        N304   1.424       .  S
N302        H305   1.044       .  S
N302        H306   1.045       .  S
N304        H307   1.046       .  S
N304        H308   1.045       .  S
C313        C314   1.415       .  A
C313        C318   1.405       .  A
C314        C315   1.414       .  A
C314        N319   1.434       .  S
C315        C316   1.400       .  A
C315        H320   1.078       .  S
C316        C321   1.486       .  S
C316        C317   1.400       .  A
C317        C318   1.399       .  A
C317        N322   1.425       .  S
C318        H323   1.084       .  S
N319        H339   1.046       .  S
N319        H340   1.041       .  S
C321        C324   1.398       .  A
C321        C328   1.404       .  A
N322        H337   1.044   1_455  S
N322        H338   1.040       .  S
C324        C325   1.408       .  A
C324        H329   1.078       .  S
C325        C326   1.414       .  A
C325       N2242   1.432       .  S
C326        C327   1.400       .  A
C327        C328   1.402       .  A
C327        H331   1.083       .  S
C328        N332   1.427       .  S
N330       C2237   1.434       .  S
N330        H333   1.042       .  S
N330        H334   1.044       .  S
N332        H335   1.038       .  S
N332        H336   1.042       .  S
C341        C342   1.406       .  A
C341        C346   1.399       .  A
C342        C343   1.406       .  A
C342        N347   1.429       .  S
C343        C344   1.413       .  A
C343        H348   1.081       .  S
C344        C349   1.525       .  S
C344        C345   1.425       .  A
C345        C346   1.404       .  A
C345        N350   1.428       .  S
C346        H351   1.084       .  S
N347        H367   1.044       .  S
N347        H368   1.044       .  S
C349        C352   1.412       .  A
C349        C356   1.427       .  A
N350        H365   1.043       .  S
N350        H366   1.044       .  S
C352        C353   1.405       .  A
C352        H357   1.077       .  S
C353        C354   1.414       .  A
C353        N358   1.439       .  S
C354        C355   1.399       .  A
C355        C356   1.413       .  A
C355        H359   1.077       .  S
C356        N360   1.437       .  S
N358        H361   1.044       .  S
N358        H362   1.044       .  S
N360        H363   1.044       .  S
N360        H364   1.041       .  S
C369        C370   1.402       .  A
C369        C374   1.401       .  A
C370        C371   1.404       .  A
C370        N375   1.427       .  S
C371        C372   1.405       .  A
C371        H376   1.075       .  S
C372        C377   1.490       .  S
C372        C373   1.407       .  A
C373        C374   1.400       .  A
C373        N378   1.428       .  S
C374        H379   1.084       .  S
N375        H395   1.044       .  S
N375        H396   1.046       .  S
C377        C380   1.404       .  A
C377        C384   1.414       .  A
N378        H393   1.042       .  S
N378        H394   1.043       .  S
C380        C381   1.407       .  A
C380        H385   1.084       .  S
C381        C382   1.413       .  A
C381        N386   1.437       .  S
C382        C383   1.397       .  A
C383        C384   1.405       .  A
C383        H387   1.084       .  S
C384        N388   1.433       .  S
N386        H389   1.046       .  S
N386        H390   1.044       .  S
N388        H391   1.046       .  S
N388        H392   1.046       .  S
C397        C398   1.402       .  A
C397        C402   1.400       .  A
C398        C399   1.396       .  A
C398        N403   1.433       .  S
C399        C400   1.398       .  A
C399        H404   1.076       .  S
C400        C405   1.468       .  S
C400        C401   1.407       .  A
C401        C402   1.399       .  A
C401        N406   1.434       .  S
C402       H2319   1.080       .  S
N403        H423   1.044       .  S
N403        H424   1.042       .  S
C405        C408   1.395       .  A
C405        C412   1.406       .  A
N406        H422   1.039       .  S
N406       H2333   1.045       .  S
H407       C2314   1.083       .  S
C408        C409   1.391       .  A
C408        H413   1.081       .  S
C409        C410   1.405       .  A
C409        N414   1.430       .  S
C410        C411   1.398       .  A
C411        C412   1.401       .  A
C411        H415   1.084       .  S
C412        N416   1.428       .  S
N414        H417   1.046       .  S
N414        H418   1.043       .  S
N416        H419   1.045       .  S
N416        H420   1.042       .  S
H421       N2318   1.044   1_455  S
C425        C426   1.412       .  A
C425        C430   1.402       .  A
C426        C427   1.404       .  A
C426        N431   1.426       .  S
C427        C428   1.399       .  A
C427        H432   1.084       .  S
C428        C433   1.496       .  S
C428        C429   1.413       .  A
C429        C430   1.407       .  A
C429        N434   1.429       .  S
C430        H435   1.084       .  S
N431        H451   1.040       .  S
N431        H452   1.044       .  S
C433        C436   1.408       .  A
C433        C440   1.417       .  A
N434        H449   1.045       .  S
N434        H450   1.037       .  S
C436        C437   1.410       .  A
C436        H441   1.084       .  S
C437        C438   1.408       .  A
C437        N442   1.435       .  S
C438        C439   1.403       .  A
C439        C440   1.402       .  A
C439        H443   1.082       .  S
C440        N444   1.433       .  S
N442        H445   1.045       .  S
N442        H446   1.044       .  S
N444        H447   1.044       .  S
N444        H448   1.041       .  S
C453        C454   1.410       .  A
C453        C458   1.406       .  A
C454        C455   1.402       .  A
C454        N459   1.433       .  S
C455        C456   1.408       .  A
C455        H460   1.084       .  S
C456        C461   1.508       .  S
C456        C457   1.423       .  A
C457        C458   1.412       .  A
C457        N462   1.439       .  S
C458        H463   1.082       .  S
N459        H479   1.044       .  S
N459        H480   1.046       .  S
C461        C464   1.404       .  A
C461        C468   1.423       .  A
N462        H477   1.046       .  S
N462        H478   1.044       .  S
C464        C465   1.398       .  A
C464        H469   1.074       .  S
C465        C466   1.403       .  A
C465       N1426   1.429       .  S
C466        C467   1.400       .  A
C467        C468   1.411       .  A
C467        H471   1.083       .  S
C468        N472   1.437       .  S
N470       C1421   1.433   1_545  S
N470        H473   1.040       .  S
N470        H474   1.043       .  S
N472        H475   1.046       .  S
N472        H476   1.045       .  S
C481        C482   1.399       .  A
C481        C486   1.400       .  A
C482        C483   1.388       .  A
C482        N487   1.436       .  S
C483        C484   1.397       .  A
C483        H488   1.079       .  S
C484        C489   1.453       .  S
C484        C485   1.407       .  A
C485        C486   1.398       .  A
C485        N490   1.438       .  S
C486        H491   1.084       .  S
N487        H507   1.046       .  S
N487        H508   1.042       .  S
C489        C492   1.394       .  A
C489        C496   1.402       .  A
N490        H505   1.046       .  S
N490        H506   1.046       .  S
C492        C493   1.391       .  A
C492        H497   1.084       .  S
C493        C494   1.406       .  A
C493        N498   1.428       .  S
C494        C495   1.392       .  A
C495        C496   1.389       .  A
C495        H499   1.085       .  S
C496        N500   1.425       .  S
N498        H501   1.044       .  S
N498        H502   1.045       .  S
N500        H503   1.044       .  S
N500        H504   1.042       .  S
C509        C510   1.423       .  A
C509        C514   1.409       .  A
C510        C511   1.404       .  A
C510        N515   1.432       .  S
C511        C512   1.403       .  A
C511        H516   1.082       .  S
C512        C517   1.496       .  S
C512        C513   1.411       .  A
C513        C514   1.409       .  A
C513        N518   1.438       .  S
C514        H519   1.084   1_545  S
N515        H535   1.042       .  S
N515        H536   1.044       .  S
C517        C520   1.405       .  A
C517        C524   1.410       .  A
N518        H533   1.045   1_545  S
N518        H534   1.046       .  S
C520        C521   1.414       .  A
C520        H525   1.083       .  S
C521        C522   1.418       .  A
C521        N526   1.441       .  S
C522        C523   1.394       .  A
C523        C524   1.400       .  A
C523        H527   1.084       .  S
C524        N528   1.424       .  S
N526        H529   1.044       .  S
N526        H530   1.039       .  S
N528       H1487   1.046       .  S
N528       H1488   1.041       .  S
H531       N1484   1.046       .  S
H532       N1484   1.041       .  S
C537        C538   1.400       .  A
C537        C542   1.396       .  A
C538        C539   1.414       .  A
C538        N543   1.430       .  S
C539        C540   1.417       .  A
C539        H544   1.081       .  S
C540        C545   1.505       .  S
C540        C541   1.411       .  A
C541        C542   1.394       .  A
C541        N546   1.431       .  S
C542        H547   1.079       .  S
N543        H563   1.040       .  S
N543        H564   1.046       .  S
C545        C548   1.409       .  A
C545        C552   1.417       .  A
N546        H561   1.043       .  S
N546        H562   1.044       .  S
C548        C549   1.412       .  A
C548        H553   1.080       .  S
C549        C550   1.408       .  A
C549        N554   1.430       .  S
C550        C551   1.399       .  A
C551        C552   1.399       .  A
C551       H1511   1.082   1_545  S
C552        N556   1.437   1_545  S
N554        H557   1.045       .  S
N554        H558   1.043       .  S
H555       C1507   1.083       .  S
N556        H560   1.042       .  S
N556       H1515   1.044       .  S
H559       N1512   1.046       .  S
C565        C566   1.415       .  A
C565        C570   1.402       .  A
C566        C567   1.412       .  A
C566        N571   1.439       .  S
C567        C568   1.412       .  A
C567        H572   1.080       .  S
C568        C573   1.537       .  S
C568        C569   1.429       .  A
C569        C570   1.420       .  A
C569        N574   1.434       .  S
C570        H575   1.082       .  S
N571        H591   1.041       .  S
N571        H592   1.044       .  S
C573        C576   1.414       .  A
C573        C580   1.431       .  A
N574        H589   1.044       .  S
N574        H590   1.041       .  S
C576        C577   1.409       .  A
C576        H581   1.075       .  S
C577        C578   1.402       .  A
C577        N582   1.431       .  S
C578        C579   1.401       .  A
C579        C580   1.421       .  A
C579        H583   1.083       .  S
C580        N584   1.436       .  S
N582        H585   1.044       .  S
N582        H586   1.046       .  S
N584        H587   1.045       .  S
N584        H588   1.045       .  S
C593        C594   1.402       .  A
C593        C598   1.397       .  A
C594        C595   1.404       .  A
C594        N599   1.438       .  S
C595        C596   1.416       .  A
C595        H600   1.074       .  S
C596        C601   1.540       .  S
C596        C597   1.433       .  A
C597        C598   1.412       .  A
C597        N602   1.428       .  S
C598        H603   1.084       .  S
N599        H619   1.045       .  S
N599        H620   1.046       .  S
C601        C604   1.422       .  A
C601        C608   1.432       .  A
N602        H617   1.042       .  S
N602        H618   1.045       .  S
C604        C605   1.417       .  A
C604        H609   1.075       .  S
C605        C606   1.408       .  A
C605        N610   1.437       .  S
C606        C607   1.399       .  A
C607        C608   1.406       .  A
C607        H611   1.084       .  S
C608        N612   1.436       .  S
N610        H613   1.045       .  S
N610        H614   1.045       .  S
N612        H615   1.044       .  S
N612        H616   1.041       .  S
C621        C622   1.410       .  A
C621        C626   1.397       .  A
C622        C623   1.396       .  A
C622        N627   1.437       .  S
C623        C624   1.401       .  A
C623        H628   1.075       .  S
C624        C629   1.493       .  S
C624        C625   1.415       .  A
C625        C626   1.402       .  A
C625        N630   1.430       .  S
C626        H631   1.084       .  S
N627        H647   1.044       .  S
N627        H648   1.045       .  S
C629        C632   1.406       .  A
C629        C636   1.419       .  A
N630        H645   1.041       .  S
N630        H646   1.039       .  S
C632        C633   1.389       .  A
C632        H637   1.076       .  S
C633        C634   1.398       .  A
C633        N638   1.432       .  S
C634        C635   1.393       .  A
C635        C636   1.400       .  A
C635        H639   1.084       .  S
C636        N640   1.434       .  S
N638        H641   1.042       .  S
N638        H642   1.043       .  S
N640        H643   1.045       .  S
N640        H644   1.041       .  S
C649        C650   1.402       .  A
C649        C654   1.405       .  A
C650        C651   1.413       .  A
C650        N655   1.434       .  S
C651        C652   1.417       .  A
C651        H656   1.076       .  S
C652        C657   1.536       .  S
C652        C653   1.431       .  A
C653        C654   1.417       .  A
C653        N658   1.437       .  S
C654       H1615   1.083       .  S
N655        H675   1.040       .  S
N655        H676   1.044       .  S
C657        C660   1.415       .  A
C657        C664   1.416       .  A
N658        H674   1.044       .  S
N658       H1629   1.043       .  S
H659       C1610   1.084   1_545  S
C660        C661   1.420       .  A
C660        H665   1.072       .  S
C661        C662   1.415       .  A
C661        N666   1.436       .  S
C662        C663   1.406       .  A
C663        C664   1.407       .  A
C663        H667   1.084       .  S
C664        N668   1.426       .  S
N666        H669   1.045       .  S
N666        H670   1.037       .  S
N668        H671   1.044       .  S
N668        H672   1.044       .  S
H673       N1614   1.042       .  S
C677        C678   1.416       .  A
C677        C682   1.405       .  A
C678        C679   1.413       .  A
C678        N683   1.434       .  S
C679        C680   1.405       .  A
C679        H684   1.078       .  S
C680        C685   1.501       .  S
C680        C681   1.408       .  A
C681        C682   1.405       .  A
C681        N686   1.432       .  S
C682        H687   1.083       .  S
N683        H703   1.041       .  S
N683        H704   1.044       .  S
C685        C688   1.406       .  A
C685        C692   1.411       .  A
N686        H701   1.045       .  S
N686        H702   1.045   1_455  S
C688        C689   1.402       .  A
C688        H693   1.077       .  S
C689        C690   1.409       .  A
C689        N694   1.432       .  S
C690        C691   1.407       .  A
C691        C692   1.409       .  A
C691        H695   1.084       .  S
C692        N696   1.432       .  S
N694        H697   1.042       .  S
N694        H698   1.045       .  S
N696        H699   1.045       .  S
N696        H700   1.045       .  S
C705        C706   1.404       .  A
C705        C710   1.396       .  A
C706        C707   1.410       .  A
C706        N711   1.431       .  S
C707        C708   1.413       .  A
C707        H712   1.083       .  S
C708        C713   1.497       .  S
C708        C709   1.410       .  A
C709        C710   1.395       .  A
C709        N714   1.432       .  S
C710        H715   1.083       .  S
N711        H731   1.042       .  S
N711        H732   1.045       .  S
C713        C716   1.408       .  A
C713        C720   1.409       .  A
N714        H729   1.043       .  S
N714        H730   1.043       .  S
C716        C717   1.397       .  A
C716        H721   1.083       .  S
C717        C718   1.410       .  A
C717        N722   1.433       .  S
C718        C719   1.405       .  A
C719        C720   1.409       .  A
C719        H723   1.083       .  S
C720        N724   1.428       .  S
N722        H725   1.044       .  S
N722        H726   1.045       .  S
N724        H727   1.044       .  S
N724        H728   1.041       .  S
C733        C734   1.408       .  A
C733        C738   1.403       .  A
C734        C735   1.419       .  A
C734        N739   1.435       .  S
C735        C736   1.411       .  A
C735        H740   1.081       .  S
C736        C741   1.498       .  S
C736        C737   1.405       .  A
C737        C738   1.406       .  A
C737        N742   1.435       .  S
C738        H743   1.081       .  S
N739        H759   1.045       .  S
N739        H760   1.045       .  S
C741        C744   1.406       .  A
C741        C748   1.412       .  A
N742        H757   1.044       .  S
N742        H758   1.043       .  S
C744        C745   1.412       .  A
C744        H749   1.084       .  S
C745        C746   1.420       .  A
C745       N2662   1.438       .  S
C746        C747   1.398       .  A
C747        C748   1.405       .  A
C747        H751   1.079       .  S
C748        N752   1.432       .  S
N750       C2657   1.438       .  S
N750        H753   1.045       .  S
N750        H754   1.044       .  S
N752        H755   1.039       .  S
N752        H756   1.043       .  S
C761        C762   1.414       .  A
C761        C766   1.401   1_545  A
C762        C763   1.396       .  A
C762        N767   1.432       .  S
C763        C764   1.402       .  A
C763        H768   1.082       .  S
C764        C769   1.469       .  S
C764        C765   1.404       .  A
C765        C766   1.398   1_545  A
C765        N770   1.437   1_545  S
C766        H771   1.078       .  S
N767        H787   1.045       .  S
N767        H788   1.041       .  S
C769        C772   1.403       .  A
C769        C776   1.406       .  A
N770        H785   1.046       .  S
N770        H786   1.045       .  S
C772        C773   1.407       .  A
C772        H777   1.080       .  S
C773        C774   1.402       .  A
C773        N778   1.434       .  S
C774        C775   1.394       .  A
C775        C776   1.391       .  A
C775        H779   1.077       .  S
C776        N780   1.437       .  S
N778        H781   1.041       .  S
N778        H782   1.046       .  S
N780        H783   1.045       .  S
N780        H784   1.042       .  S
C789        C790   1.413       .  A
C789        C794   1.402       .  A
C790        C791   1.399       .  A
C790        N795   1.420       .  S
C791        C792   1.389       .  A
C791        H796   1.085       .  S
C792        C797   1.479       .  S
C792        C793   1.412       .  A
C793        C794   1.408       .  A
C793        N798   1.432   1_545  S
C794        H799   1.083       .  S
N795        H815   1.038       .  S
N795        H816   1.045       .  S
C797        C800   1.398       .  A
C797        C804   1.411       .  A
N798        H813   1.045       .  S
N798        H814   1.044       .  S
C800        C801   1.404       .  A
C800        H805   1.079       .  S
C801        C802   1.406       .  A
C801        N806   1.429       .  S
C802        C803   1.400       .  A
C803        C804   1.403       .  A
C803        H807   1.083       .  S
C804        N808   1.437       .  S
N806        H809   1.044       .  S
N806        H810   1.040       .  S
N808        H811   1.045       .  S
N808        H812   1.040       .  S
C817        C818   1.409       .  A
C817        C822   1.408       .  A
C818        C819   1.406       .  A
C818        N823   1.430       .  S
C819        C820   1.409       .  A
C819        H824   1.080       .  S
C820        C825   1.501       .  S
C820        C821   1.410       .  A
C821        C822   1.404       .  A
C821        N826   1.433       .  S
C822        H827   1.079       .  S
N823        H843   1.042       .  S
N823        H844   1.046       .  S
C825        C828   1.411       .  A
C825        C832   1.408       .  A
N826        H841   1.045       .  S
N826        H842   1.045       .  S
C828        C829   1.409       .  A
C828        H833   1.082       .  S
C829        C830   1.413       .  A
C829        N834   1.432       .  S
C830        C831   1.400       .  A
C831        C832   1.400       .  A
C831        H835   1.084       .  S
C832        N836   1.426       .  S
N834       H2749   1.043       .  S
N834       H2750   1.045       .  S
N836        H839   1.044       .  S
N836        H840   1.040       .  S
H837       N2746   1.043       .  S
H838       N2746   1.044       .  S
C845        C846   1.414       .  A
C845        C850   1.395       .  A
C846        C847   1.406       .  A
C846        N851   1.435       .  S
C847        C848   1.406       .  A
C847        H852   1.083       .  S
C848        C853   1.500       .  S
C848        C849   1.415       .  A
C849        C850   1.399       .  A
C849        N854   1.428       .  S
C850        H855   1.083       .  S
N851        H872   1.045       .  S
N851       H1827   1.046       .  S
C853        C856   1.406       .  A
C853        C860   1.419       .  A
N854        H869   1.046       .  S
N854        H870   1.039       .  S
C856        C857   1.396       .  A
C856        H861   1.081       .  S
C857        C858   1.411       .  A
C857       N2774   1.437       .  S
C858        C859   1.399       .  A
C859        C860   1.409       .  A
C859        H863   1.084       .  S
C860        N864   1.436       .  S
N862       C2769   1.437       .  S
N862        H865   1.044       .  S
N862        H866   1.044       .  S
N864        H867   1.046       .  S
N864        H868   1.044       .  S
H871       N1807   1.045       .  S
C873        C874   1.409       .  A
C873        C878   1.402       .  A
C874        C875   1.392       .  A
C874        N879   1.429       .  S
C875        C876   1.386       .  A
C875        H880   1.077       .  S
C876        C881   1.492       .  S
C876        C877   1.419       .  A
C877        C878   1.418       .  A
C877        N882   1.432       .  S
C878        H883   1.083       .  S
N879        H899   1.044       .  S
N879        H900   1.045       .  S
C881        C884   1.402       .  A
C881        C888   1.420       .  A
N882        H897   1.045       .  S
N882        H898   1.036       .  S
C884        C885   1.408       .  A
C884        H889   1.078       .  S
C885        C886   1.407       .  A
C885        N890   1.439       .  S
C886        C887   1.401       .  A
C887        C888   1.405       .  A
C887        H891   1.084       .  S
C888        N892   1.440       .  S
N890        H893   1.043       .  S
N890        H894   1.042       .  S
N892        H895   1.046       .  S
N892        H896   1.040       .  S
C901        C902   1.410       .  A
C901        C906   1.402       .  A
C902        C903   1.394       .  A
C902        N907   1.438       .  S
C903        C904   1.402       .  A
C903        H908   1.082       .  S
C904        C909   1.475       .  S
C904        C905   1.403       .  A
C905        C906   1.402       .  A
C905        N910   1.432       .  S
C906        H911   1.084       .  S
N907        H928   1.043       .  S
N907       H2839   1.044       .  S
C909        C912   1.412       .  A
C909        C916   1.402       .  A
N910        H925   1.044       .  S
N910        H926   1.045       .  S
C912        C913   1.412       .  A
C912        H917   1.083       .  S
C913        C914   1.403       .  A
C913        N918   1.435       .  S
C914        C915   1.395       .  A
C915        C916   1.381       .  A
C915        H919   1.079   1_545  S
C916        N920   1.431       .  S
N918        H921   1.046       .  S
N918        H922   1.046       .  S
N920        H923   1.040   1_545  S
N920        H924   1.044   1_545  S
H927       N2819   1.044       .  S
C929        C930   1.403       .  A
C929        C934   1.396       .  A
C930        C931   1.402       .  A
C930        N935   1.424       .  S
C931        C932   1.408       .  A
C931        H936   1.078       .  S
C932        C937   1.514       .  S
C932        C933   1.422       .  A
C933        C934   1.407       .  A
C933        N938   1.427       .  S
C934        H939   1.083       .  S
N935        H955   1.046       .  S
N935        H956   1.043       .  S
C937        C940   1.403       .  A
C937        C944   1.420       .  A
N938        H953   1.046       .  S
N938        H954   1.044       .  S
C940        C941   1.404       .  A
C940        H945   1.082       .  S
C941        C942   1.422       .  A
C941        N946   1.435       .  S
C942        C943   1.405       .  A
C943        C944   1.417       .  A
C943        H947   1.083       .  S
C944        N948   1.432       .  S
N946        H949   1.043       .  S
N946        H950   1.045       .  S
N948        H951   1.045       .  S
N948        H952   1.045       .  S
O957       Ni963   1.964   1_556  S
O957        C978   1.294       .  A
O958       Ni981   1.968       .  S
O958        C967   1.316       .  A
O959       Ni963   1.788   1_556  S
O959       Ni981   1.872   1_556  S
O959       Ni975   1.878       .  S
O959        H982   0.962       .  S
C960        O977   1.322       .  A
C960        O969   1.301       .  A
C960       C1083   1.535       .  S
O961       Ni980   1.919   1_554  S
O961        C967   1.285       .  A
O962       Ni980   1.971       .  S
O962        C964   1.275       .  A
Ni963       O966   2.023       .  S
Ni963       O968   1.964       .  S
C964        O974   1.278       .  A
C964       C1092   1.532       .  S
O965       Ni981   1.902       .  S
O965        C971   1.298       .  A
O966        C971   1.321       .  A
C967       C1202   1.480       .  S
O968        C970   1.282       .  A
O969       Ni980   1.987       .  S
C970        O976   1.308       .  A
C970       C1218   1.538       .  S
C971       C1233   1.502       .  S
H972        O973   0.967   1_554  S
O973       Ni981   1.887   1_556  S
O973       Ni975   1.805       .  S
O973       Ni980   1.851       .  S
O974       Ni975   1.966       .  S
Ni975       O979   1.913       .  S
Ni975       O977   2.000       .  S
O976       Ni981   1.970       .  S
C978        O979   1.297       .  A
C978       C1067   1.491       .  S
O983       Ni989   1.897       .  S
O983       C1004   1.275       .  A
O984      Ni1007   1.970       .  S
O984        C993   1.302       .  A
O985       Ni989   1.921       .  S
O985      Ni1007   1.900       .  S
O985      Ni1001   1.865       .  S
O985       H1008   0.968       .  S
C986       O1003   1.296       .  A
C986        O995   1.285       .  A
C986       C1225   1.492       .  S
O987      Ni1006   1.931       .  S
O987        C993   1.279       .  A
O988      Ni1006   1.939       .  S
O988        C990   1.271       .  A
Ni989       O992   1.943       .  S
Ni989       O994   1.941       .  S
C990       O1000   1.299       .  A
C990       C1209   1.545       .  S
O991      Ni1007   2.003       .  S
O991        C997   1.321       .  A
O992        C997   1.289       .  A
C993       C1076   1.504       .  S
O994        C996   1.262       .  A
O995      Ni1006   1.952       .  S
C996       O1002   1.267       .  A
C996       C1051   1.518       .  S
C997       C1060   1.532       .  S
H998        O999   0.966       .  S
O999      Ni1007   1.938       .  S
O999      Ni1001   1.904       .  S
O999      Ni1006   1.889       .  S
O1000     Ni1001   2.010       .  S
Ni1001     O1005   2.006       .  S
Ni1001     O1003   1.946       .  S
O1002     Ni1007   1.957       .  S
C1004      O1005   1.316       .  A
C1004      C1179   1.527       .  S
O1009      C1019   1.283       .  A
O1010     Ni1017   1.929       .  S
O1010      C1020   1.286       .  A
O1011     Ni1017   1.893       .  S
O1011      C1021   1.274       .  A
O1012      C1022   1.271       .  A
O1013      C1022   1.286       .  A
O1014     Ni1018   1.938       .  S
O1014      C1021   1.286       .  A
O1015     Ni1018   1.904       .  S
O1015      C1020   1.278       .  A
O1016      C1019   1.274       .  A
Ni1017    Ni1018   2.388       .  S
C1019      C1801   1.474       .  S
C1020      C1898   1.484       .  S
C1021      C1829   1.473       .  S
C1022      C1870   1.449       .  S
O1023     Ni1031   1.926       .  S
O1023      C1033   1.283       .  A
O1024     Ni1031   1.935       .  S
O1024      C1034   1.285       .  A
O1025     Ni1031   1.911       .  S
O1025      C1035   1.280       .  A
O1026     Ni1031   1.898       .  S
O1026      C1036   1.271       .  A
O1027     Ni1032   1.920       .  S
O1027      C1036   1.282       .  A
O1028     Ni1032   1.931       .  S
O1028      C1035   1.286       .  A
O1029     Ni1032   1.919       .  S
O1029      C1034   1.280       .  A
O1030     Ni1032   1.908       .  S
O1030      C1033   1.279       .  A
Ni1031    Ni1032   2.385       .  S
C1033      C1745   1.489       .  S
C1034      C1689   1.482       .  S
C1035      C1773   1.492       .  S
C1036      C1730   1.460       .  S
O1037     Ni2957   1.930   1_455  S
O1037      C1047   1.285       .  A
O1038     Ni1045   1.923       .  S
O1038      C1048   1.283       .  A
O1039     Ni1045   1.903       .  S
O1039      C1049   1.278       .  A
O1040     Ni2957   1.921   1_455  S
O1040      C1050   1.282       .  A
O1041     Ni2958   1.915   1_455  S
O1041      C1050   1.283       .  A
O1042     Ni1046   1.918       .  S
O1042      C1049   1.282       .  A
O1043     Ni1046   1.902       .  S
O1043      C1048   1.277       .  A
O1044     Ni2958   1.915   1_455  S
O1044      C1047   1.282       .  A
Ni1045     O2949   1.940       .  S
Ni1045     O2952   1.920       .  S
Ni1045    Ni1046   2.386       .  S
Ni1046     O2953   1.914       .  S
Ni1046     O2956   1.906       .  S
C1047      C1618   1.495       .  S
C1048      C1661   1.467       .  S
C1049      C1577   1.472       .  S
C1050      C1633   1.496       .  S
C1051      C2964   1.467       .  A
C1051      C1056   1.404       .  A
C1052      C1113   1.491       .  S
C1052      C2963   1.464   1_455  A
C1052      C1053   1.413       .  A
C1053      C1054   1.386       .  A
C1053      H1058   1.087       .  S
C1054      C1786   1.485       .  S
C1054      C2967   1.403   1_455  A
C1055      C1857   1.472       .  S
C1055      C2966   1.410       .  A
C1055      C1056   1.390       .  A
C1056      H1057   1.087       .  S
C1059      C1109   1.533       .  S
C1059      C1064   1.423       .  A
C1060      C1061   1.417       .  A
C1061      C1062   1.400       .  A
C1061      H1066   1.084       .  S
C1062      C1758   1.479       .  S
C1063      C1646   1.492       .  S
C1063      C1064   1.403       .  A
C1064      H1065   1.083       .  S
C1067      C1068   1.440       .  A
C1067      C1072   1.412       .  A
C1068      C1135   1.497       .  S
C1068      C1069   1.417       .  A
C1069      C1070   1.391       .  A
C1069      H1074   1.085       .  S
C1070      C1842   1.482       .  S
C1070      C1071   1.402       .  A
C1071      C1590   1.471       .  S
C1071      C1072   1.385       .  A
C1072      H1073   1.085       .  S
C1075      C1112   1.515       .  S
C1075      C1076   1.460       .  A
C1075      C1080   1.415       .  A
C1076      C1077   1.417       .  A
C1077      C1078   1.398       .  A
C1077      H1082   1.086       .  S
C1078      C1674   1.491       .  S
C1078      C1079   1.406       .  A
C1079      C1885   1.484       .  S
C1079      C1080   1.397       .  A
C1080      H1081   1.085       .  S
C1083      C1088   1.407       .  A
C1084      C1138   1.530       .  S
C1084      C1085   1.413       .  A
C1085      C1086   1.399       .  A
C1085      H1090   1.086       .  S
C1086      C1605   1.496       .  S
C1087      C1717   1.487       .  S
C1087      C1088   1.396       .  A
C1088      H1089   1.085       .  S
C1091      C1139   1.548       .  S
C1091      C3004   1.482   1_455  A
C1091      C1096   1.433       .  A
C1092      C3003   1.482       .  A
C1092      C1093   1.409       .  A
C1093      C1094   1.387       .  A
C1093      H1098   1.086       .  S
C1094      C1814   1.465       .  S
C1094      C3007   1.402       .  A
C1095      C1702   1.508       .  S
C1095      C3006   1.404   1_455  A
C1095      C1096   1.407       .  A
C1096      H1097   1.083       .  S
O1099     Ni1105   1.943       .  S
O1099      C1120   1.281       .  A
O1100     Ni1123   2.033       .  S
O1100      C1109   1.321       .  A
O1101     Ni1105   1.883       .  S
O1101     Ni1123   1.912       .  S
O1101     Ni1117   1.929       .  S
O1101      H1124   0.969       .  S
C1102      O1119   1.318       .  A
C1102      O1111   1.287       .  A
C1102      C1180   1.512       .  S
O1103     Ni1122   1.884       .  S
O1103      C1109   1.271       .  A
O1104     Ni1122   1.924       .  S
O1104      C1106   1.258       .  A
Ni1105     O1108   1.958       .  S
Ni1105     O1110   1.926       .  S
C1106      O1116   1.260       .  A
C1106      C1226   1.489       .  S
O1107     Ni1123   1.948       .  S
O1107      C1113   1.296       .  A
O1108      C1113   1.287       .  A
O1110      C1112   1.269       .  A
O1111     Ni1122   1.930       .  S
C1112      O1118   1.293       .  A
H1114      O1115   0.969       .  S
O1115     Ni1123   1.860       .  S
O1115     Ni1117   1.908       .  S
O1115     Ni1122   1.920       .  S
O1116     Ni1117   1.933       .  S
Ni1117     O1121   1.989       .  S
Ni1117     O1119   1.992       .  S
O1118     Ni1123   1.977       .  S
C1120      O1121   1.308       .  A
C1120      C1210   1.531       .  S
O1125     Ni1131   1.928   1_554  S
O1125      C1146   1.289       .  A
O1126     Ni1149   1.909       .  S
O1126      C1135   1.293       .  A
O1127     Ni1131   1.852   1_554  S
O1127     Ni1149   1.820   1_554  S
O1127     Ni1143   1.899       .  S
O1127      H1150   0.967       .  S
C1128      O1145   1.302       .  A
C1128      O1137   1.322       .  A
C1128      C1201   1.504       .  S
O1129     Ni1148   1.977   1_556  S
O1129      C1135   1.297       .  A
O1130     Ni1148   1.969       .  S
O1130      C1132   1.285       .  A
Ni1131     O1134   1.996       .  S
Ni1131     O1136   1.960       .  S
C1132      O1142   1.308       .  A
C1132      C1217   1.537       .  S
O1133     Ni1149   1.988       .  S
O1133      C1139   1.317       .  A
O1134      C1139   1.302       .  A
O1136      C1138   1.277       .  A
O1137     Ni1148   2.032       .  S
C1138      O1144   1.275       .  A
H1140      O1141   0.959   1_556  S
O1141     Ni1149   1.872   1_554  S
O1141     Ni1143   1.880       .  S
O1141     Ni1148   1.785       .  S
O1142     Ni1143   1.969       .  S
Ni1143     O1147   1.987       .  S
Ni1143     O1145   1.905       .  S
O1144     Ni1149   1.977       .  S
C1146      O1147   1.318       .  A
C1146      C1234   1.505       .  S
O1151     Ni3071   1.922       .  S
O1151      C1161   1.282       .  A
O1152     Ni1159   1.915       .  S
O1152      C1162   1.282       .  A
O1153     Ni1159   1.923       .  S
O1153      C1163   1.284       .  A
O1154     Ni3071   1.919       .  S
O1154      C1164   1.281       .  A
O1155     Ni3072   1.900       .  S
O1155      C1164   1.278       .  A
O1156     Ni1160   1.933   1_455  S
O1156      C1163   1.284       .  A
O1157     Ni1160   1.943   1_455  S
O1157      C1162   1.287       .  A
O1158     Ni3072   1.920       .  S
O1158      C1161   1.281       .  A
Ni1159     O3063   1.911   1_455  S
Ni1159     O3066   1.923   1_455  S
Ni1159    Ni1160   2.385   1_455  S
Ni1160     O3067   1.910       .  S
Ni1160     O3070   1.920       .  S
C1161      C1493   1.475       .  S
C1162      C1521   1.502       .  S
C1163      C1562   1.509       .  S
C1164      C1478   1.465       .  S
O1165     Ni1173   1.898       .  S
O1165      C1175   1.275       .  A
O1166     Ni1173   1.896       .  S
O1166      C1176   1.276       .  A
O1167     Ni1173   1.913       .  S
O1167      C1177   1.282       .  A
O1168     Ni1173   1.907       .  S
O1168      C1178   1.281       .  A
O1169     Ni1174   1.909       .  S
O1169      C1178   1.279       .  A
O1170     Ni1174   1.919       .  S
O1170      C1177   1.280       .  A
O1171     Ni1174   1.928       .  S
O1171      C1176   1.286       .  A
O1172     Ni1174   1.925       .  S
O1172      C1175   1.282       .  A
Ni1173    Ni1174   2.390       .  S
C1175      C1409   1.460       .  S
C1176      C1381   1.483       .  S
C1177      C1366   1.483       .  S
C1178      C1450   1.469       .  S
C1179      C1184   1.417       .  A
C1180      C1181   1.400       .  A
C1181      C1182   1.400       .  A
C1181      H1186   1.084       .  S
C1182      C1422   1.480       .  S
C1183      C1465   1.488       .  S
C1183      C1184   1.395       .  A
C1184      H1185   1.083       .  S
O1187      C1197   1.277       .  A
O1188     Ni1195   1.915       .  S
O1188      C1198   1.280       .  A
O1189     Ni1195   1.948       .  S
O1189      C1199   1.287       .  A
O1190      C1200   1.280       .  A
O1191      C1200   1.279       .  A
O1192     Ni1196   1.914       .  S
O1192      C1199   1.281       .  A
O1193     Ni1196   1.922       .  S
O1193      C1198   1.282       .  A
O1194      C1197   1.279       .  A
Ni1195    Ni1196   2.387       .  S
C1197      C1241   1.450       .  S
C1198      C1325   1.478       .  S
C1199      C1297   1.496       .  S
C1200      C1269   1.477       .  S
C1201      C1206   1.402       .  A
C1202      C1203   1.411       .  A
C1203      C1204   1.388       .  A
C1203      H1208   1.085       .  S
C1204      C1506   1.490       .  S
C1205      C1437   1.471       .  S
C1205      C1206   1.391       .  A
C1206      H1207   1.086       .  S
C1209      C1210   1.472       .  A
C1209      C1214   1.428       .  A
C1210      C1211   1.426       .  A
C1211      C1212   1.412       .  A
C1211      H1216   1.085       .  S
C1212      C1534   1.509       .  S
C1212      C1213   1.414       .  A
C1213      C1310   1.511       .  S
C1213      C1214   1.415       .  A
C1214      H1215   1.084       .  S
C1217      C1218   1.483       .  A
C1217      C1222   1.428       .  A
C1218      C1219   1.418       .  A
C1219      C1220   1.400       .  A
C1219      H1224   1.085       .  S
C1220      C1338   1.492       .  S
C1220      C1221   1.407       .  A
C1221      C1549   1.506       .  S
C1221      C1222   1.408       .  A
C1222      H1223   1.085       .  S
C1225      C3138   1.465       .  A
C1225      C1230   1.411       .  A
C1226      C3137   1.458   1_455  A
C1226      C1227   1.403       .  A
C1227      C1228   1.377       .  A
C1227      H1232   1.088       .  S
C1228      C1254   1.466       .  S
C1228      C3141   1.403   1_455  A
C1229      C1353   1.484       .  S
C1229      C3140   1.403       .  A
C1229      C1230   1.382       .  A
C1230      H1231   1.086       .  S
C1233      C3146   1.453       .  A
C1233      C1238   1.405       .  A
C1234      C3145   1.449   1_455  A
C1234      C1235   1.416       .  A
C1235      C1236   1.402       .  A
C1235      H1240   1.084       .  S
C1236      C1282   1.485       .  S
C1236      C3149   1.411   1_455  A
C1237      C1394   1.488       .  S
C1237      C3148   1.412       .  A
C1237      C1238   1.389       .  A
C1238      H1239   1.086       .  S
C1241      C1242   1.401       .  A
C1241      C1246   1.395       .  A
C1242      C1243   1.405       .  A
C1242      N1247   1.436       .  S
C1243      C1244   1.407       .  A
C1243      H1248   1.076       .  S
C1244      C1249   1.472       .  S
C1244      C1245   1.402       .  A
C1245      C1246   1.390       .  A
C1245      N1250   1.431   1_565  S
C1246      H1251   1.084   1_565  S
N1247      H1267   1.046       .  S
N1247      H1268   1.044       .  S
C1249      C1252   1.402       .  A
C1249      C1256   1.410       .  A
N1250      H1265   1.043       .  S
N1250      H1266   1.040       .  S
C1252      C1253   1.397       .  A
C1252      H1257   1.082       .  S
C1253      C1254   1.410       .  A
C1253      N1258   1.433       .  S
C1254      C1255   1.391       .  A
C1255      C1256   1.388       .  A
C1255      H1259   1.083       .  S
C1256      N1260   1.428       .  S
N1258      H1261   1.044       .  S
N1258      H1262   1.045       .  S
N1260      H1263   1.045       .  S
N1260      H1264   1.046   1_565  S
C1269      C1270   1.414       .  A
C1269      C1274   1.396       .  A
C1270      C1271   1.409       .  A
C1270      N1275   1.436       .  S
C1271      C1272   1.400       .  A
C1271      H1276   1.072       .  S
C1272      C1277   1.493       .  S
C1272      C1273   1.406       .  A
C1273      C1274   1.386       .  A
C1273      N1278   1.420   1_455  S
C1274      H1279   1.084       .  S
N1275      H1295   1.042       .  S
N1275      H1296   1.042       .  S
C1277      C1280   1.400       .  A
C1277      C1284   1.415       .  A
N1278      H1293   1.039       .  S
N1278      H1294   1.044       .  S
C1280      C1281   1.402       .  A
C1280      H1285   1.077       .  S
C1281      C1282   1.413       .  A
C1281      N3198   1.432       .  S
C1282      C1283   1.400       .  A
C1283      C1284   1.401       .  A
C1283      H1287   1.083       .  S
C1284      N1288   1.436       .  S
N1286      C3193   1.432       .  S
N1286      H1289   1.045       .  S
N1286      H1290   1.044       .  S
N1288      H1291   1.044       .  S
N1288      H1292   1.045       .  S
C1297      C1298   1.404       .  A
C1297      C1302   1.394       .  A
C1298      C1299   1.424       .  A
C1298      N1303   1.433       .  S
C1299      C1300   1.424       .  A
C1299      H1304   1.080       .  S
C1300      C1305   1.542       .  S
C1300      C1301   1.422       .  A
C1301      C1302   1.402       .  A
C1301      N1306   1.426       .  S
C1302      H1307   1.076       .  S
N1303      H1323   1.046       .  S
N1303      H1324   1.044       .  S
C1305      C1308   1.417       .  A
C1305      C1312   1.425       .  A
N1306      H1321   1.044       .  S
N1306      H1322   1.044       .  S
C1308      C1309   1.413       .  A
C1308      H1313   1.076       .  S
C1309      C1310   1.418       .  A
C1309      N1314   1.439       .  S
C1310      C1311   1.398       .  A
C1311      C1312   1.416       .  A
C1311      H1315   1.084       .  S
C1312      N1316   1.428       .  S
N1314      H1317   1.044       .  S
N1314      H1318   1.045       .  S
N1316      H1319   1.046       .  S
N1316      H1320   1.043       .  S
C1325      C1326   1.403       .  A
C1325      C1330   1.406       .  A
C1326      C1327   1.407       .  A
C1326      N1331   1.435       .  S
C1327      C1328   1.400       .  A
C1327      H1332   1.072       .  S
C1328      C1333   1.491       .  S
C1328      C1329   1.409       .  A
C1329      C1330   1.409       .  A
C1329      N1334   1.433       .  S
C1330      H1335   1.084       .  S
N1331      H1351   1.045       .  S
N1331      H1352   1.042       .  S
C1333      C1336   1.401       .  A
C1333      C1340   1.415       .  A
N1334      H1349   1.046       .  S
N1334      H1350   1.039       .  S
C1336      C1337   1.402       .  A
C1336      H1341   1.083       .  S
C1337      C1338   1.413       .  A
C1337      N1342   1.431       .  S
C1338      C1339   1.401       .  A
C1339      C1340   1.410       .  A
C1339      H1343   1.083       .  S
C1340      N1344   1.434       .  S
N1342      H1345   1.045       .  S
N1342      H1346   1.044       .  S
N1344      H1347   1.046       .  S
N1344      H1348   1.041       .  S
C1353      C1354   1.410       .  A
C1353      C1358   1.393       .  A
C1354      C1355   1.413       .  A
C1354      N1359   1.437       .  S
C1355      C1356   1.410       .  A
C1355      H1360   1.083       .  S
C1356      C1361   1.498       .  S
C1356      C1357   1.408       .  A
C1357      C1358   1.396       .  A
C1357      N1362   1.421       .  S
C1358      H3275   1.084       .  S
N1359      H1379   1.044       .  S
N1359      H1380   1.045       .  S
C1361      C1364   1.406       .  A
C1361      C1368   1.415       .  A
N1362      H3289   1.046       .  S
N1362      H1378   1.042       .  S
H1363      C3270   1.082       .  S
C1364      C1365   1.404       .  A
C1364      H1369   1.080       .  S
C1365      C1366   1.411       .  A
C1365      N1370   1.433       .  S
C1366      C1367   1.400       .  A
C1367      C1368   1.402       .  A
C1367      H1371   1.083       .  S
C1368      N1372   1.429       .  S
N1370      H1373   1.046       .  S
N1370      H1374   1.045       .  S
N1372      H1375   1.044       .  S
N1372      H1376   1.045       .  S
H1377      N3274   1.045   1_455  S
C1381      C1382   1.412       .  A
C1381      C1386   1.405       .  A
C1382      C1383   1.402       .  A
C1382      N1387   1.432       .  S
C1383      C1384   1.404       .  A
C1383      H1388   1.081       .  S
C1384      C1389   1.499       .  S
C1384      C1385   1.416       .  A
C1385      C1386   1.405       .  A
C1385      N1390   1.434       .  S
C1386      H1391   1.084       .  S
N1387      H1407   1.043       .  S
N1387      H1408   1.046       .  S
C1389      C1392   1.406       .  A
C1389      C1396   1.422       .  A
N1390      H1405   1.044       .  S
N1390      H1406   1.043       .  S
C1392      C1393   1.402       .  A
C1392      H1397   1.083       .  S
C1393      C1394   1.416       .  A
C1393      N1398   1.433       .  S
C1394      C1395   1.395       .  A
C1395      C1396   1.393       .  A
C1395      H1399   1.084       .  S
C1396      N1400   1.426       .  S
N1398      H1401   1.044       .  S
N1398      H1402   1.045       .  S
N1400      H1403   1.036       .  S
N1400      H1404   1.037       .  S
C1409      C1410   1.408       .  A
C1409      C1414   1.400       .  A
C1410      C1411   1.398       .  A
C1410      N1415   1.434       .  S
C1411      C1412   1.402       .  A
C1411      H1416   1.083       .  S
C1412      C1417   1.472       .  S
C1412      C1413   1.406       .  A
C1413      C1414   1.406       .  A
C1413      N1418   1.430       .  S
C1414      H1419   1.084       .  S
N1415      H1435   1.045       .  S
N1415      H1436   1.046       .  S
C1417      C1420   1.396       .  A
C1417      C1424   1.400       .  A
N1418      H1433   1.045       .  S
N1418      H1434   1.046       .  S
C1420      C1421   1.399       .  A
C1420      H1425   1.081   1_565  S
C1421      C1422   1.412       .  A
C1422      C1423   1.399       .  A
C1423      C1424   1.396       .  A
C1423      H1427   1.083       .  S
C1424      N1428   1.427       .  S
N1426      H1429   1.041       .  S
N1426      H1430   1.045       .  S
N1428      H1431   1.042       .  S
N1428      H1432   1.045       .  S
C1437      C1438   1.398       .  A
C1437      C1442   1.395       .  A
C1438      C1439   1.400       .  A
C1438      N1443   1.436       .  S
C1439      C1440   1.408       .  A
C1439      H1444   1.078       .  S
C1440      C1445   1.498       .  S
C1440      C1441   1.424       .  A
C1441      C1442   1.401       .  A
C1441      N1446   1.438       .  S
C1442      H1447   1.084       .  S
N1443      H1463   1.045       .  S
N1443      H1464   1.040       .  S
C1445      C1448   1.392       .  A
C1445      C1452   1.414       .  A
N1446      H1461   1.046       .  S
N1446      H1462   1.042       .  S
C1448      C1449   1.393       .  A
C1448      H1453   1.065       .  S
C1449      C1450   1.406       .  A
C1449      N1454   1.432       .  S
C1450      C1451   1.399       .  A
C1451      C1452   1.407       .  A
C1451      H1455   1.084       .  S
C1452      N1456   1.424       .  S
N1454      H1457   1.043       .  S
N1454      H1458   1.045       .  S
N1456      H1459   1.033   1_565  S
N1456      H1460   1.045       .  S
C1465      C1466   1.412       .  A
C1465      C1470   1.408       .  A
C1466      C1467   1.394       .  A
C1466      N1471   1.431       .  S
C1467      C1468   1.393       .  A
C1467      H1472   1.071       .  S
C1468      C1473   1.477       .  S
C1468      C1469   1.404       .  A
C1469      C1470   1.406       .  A
C1469      N1474   1.432       .  S
C1470      H1475   1.083       .  S
N1471      H1491   1.044       .  S
N1471      H1492   1.041       .  S
C1473      C1476   1.399       .  A
C1473      C1480   1.412       .  A
N1474      H1489   1.045       .  S
N1474      H1490   1.046       .  S
C1476      C1477   1.401       .  A
C1476      H1481   1.084       .  S
C1477      C1478   1.411       .  A
C1477      N1482   1.439       .  S
C1478      C1479   1.401       .  A
C1479      C1480   1.403       .  A
C1479      H1483   1.084       .  S
C1480      N1484   1.437       .  S
N1482      H1485   1.045       .  S
N1482      H1486   1.039       .  S
C1493      C1494   1.409       .  A
C1493      C1498   1.401       .  A
C1494      C1495   1.414       .  A
C1494      N1499   1.436       .  S
C1495      C1496   1.408       .  A
C1495      H1500   1.080       .  S
C1496      C1501   1.493       .  S
C1496      C1497   1.402       .  A
C1497      C1498   1.398       .  A
C1497      N1502   1.427       .  S
C1498      H1503   1.083       .  S
N1499      H1519   1.046       .  S
N1499      H1520   1.045       .  S
C1501      C1504   1.405       .  A
C1501      C1508   1.424       .  A
N1502      H1517   1.041       .  S
N1502      H1518   1.039       .  S
C1504      C1505   1.403       .  A
C1504      H1509   1.080       .  S
C1505      C1506   1.400       .  A
C1505      N1510   1.428       .  S
C1506      C1507   1.400       .  A
C1507      C1508   1.402       .  A
C1508      N1512   1.438       .  S
N1510      H1513   1.044       .  S
N1510      H1514   1.041       .  S
N1512      H1516   1.041       .  S
C1521      C1522   1.419       .  A
C1521      C1526   1.401       .  A
C1522      C1523   1.420       .  A
C1522      N1527   1.436       .  S
C1523      C1524   1.411       .  A
C1523      H1528   1.081       .  S
C1524      C1529   1.522       .  S
C1524      C1525   1.413       .  A
C1525      C1526   1.406       .  A
C1525      N1530   1.423       .  S
C1526      H1531   1.084       .  S
N1527      H1547   1.044       .  S
N1527      H1548   1.045       .  S
C1529      C1532   1.412       .  A
C1529      C1536   1.421       .  A
N1530      H1545   1.045       .  S
N1530      H1546   1.042       .  S
C1532      C1533   1.413       .  A
C1532      H1537   1.080       .  S
C1533      C1534   1.411       .  A
C1533      N1538   1.436       .  S
C1534      C1535   1.405       .  A
C1535      C1536   1.417       .  A
C1535      H1539   1.083       .  S
C1536      N1540   1.430       .  S
N1538      H1541   1.045       .  S
N1538      H1542   1.045       .  S
N1540      H1543   1.045       .  S
N1540      H1544   1.046       .  S
C1549      C1550   1.412       .  A
C1549      C1554   1.399       .  A
C1550      C1551   1.420       .  A
C1550      N1555   1.436       .  S
C1551      C1552   1.412       .  A
C1551      H1556   1.082       .  S
C1552      C1557   1.514       .  S
C1552      C1553   1.423       .  A
C1553      C1554   1.402       .  A
C1553      N1558   1.435       .  S
C1554      H1559   1.082       .  S
N1555      H1575   1.045       .  S
N1555      H1576   1.046       .  S
C1557      C1560   1.401       .  A
C1557      C1564   1.415       .  A
N1558      H1573   1.040       .  S
N1558      H1574   1.044       .  S
C1560      C1561   1.406       .  A
C1560      H1565   1.079       .  S
C1561      C1562   1.415       .  A
C1561      N1566   1.427       .  S
C1562      C1563   1.410       .  A
C1563      C1564   1.417       .  A
C1563      H1567   1.083       .  S
C1564      N1568   1.428       .  S
N1566      H1569   1.044       .  S
N1566      H1570   1.039       .  S
N1568      H1571   1.045       .  S
N1568      H1572   1.045       .  S
C1577      C1578   1.408       .  A
C1577      C1582   1.398       .  A
C1578      C1579   1.393       .  A
C1578      N1583   1.429       .  S
C1579      C1580   1.399       .  A
C1579      H1584   1.077       .  S
C1580      C1585   1.496       .  S
C1580      C1581   1.408       .  A
C1581      C1582   1.407       .  A
C1581      N1586   1.418       .  S
C1582      H1587   1.084       .  S
N1583      H1603   1.045       .  S
N1583      H1604   1.043       .  S
C1585      C1588   1.409       .  A
C1585      C1592   1.418       .  A
N1586      H1601   1.044       .  S
N1586      H1602   1.034       .  S
C1588      C1589   1.398       .  A
C1588      H1593   1.077       .  S
C1589      C1590   1.400       .  A
C1589      N1594   1.431       .  S
C1590      C1591   1.395       .  A
C1591      C1592   1.400       .  A
C1591      H1595   1.084       .  S
C1592      N1596   1.436       .  S
N1594      H1597   1.043       .  S
N1594      H1598   1.040       .  S
N1596      H1599   1.046       .  S
N1596      H1600   1.043       .  S
C1605      C1606   1.403       .  A
C1605      C1610   1.402       .  A
C1606      C1607   1.407       .  A
C1606      N1611   1.434       .  S
C1607      C1608   1.410       .  A
C1607      H1612   1.072       .  S
C1608      C1613   1.518       .  S
C1608      C1609   1.427       .  A
C1609      C1610   1.411       .  A
C1609      N1614   1.438       .  S
N1611      H1631   1.042       .  S
N1611      H1632   1.046       .  S
C1613      C1616   1.410       .  A
C1613      C1620   1.417       .  A
N1614      H1630   1.043   1_565  S
C1616      C1617   1.410       .  A
C1616      H1621   1.078       .  S
C1617      C1618   1.405       .  A
C1617      N1622   1.427       .  S
C1618      C1619   1.404       .  A
C1619      C1620   1.407       .  A
C1619      H1623   1.084   1_455  S
C1620      N1624   1.428       .  S
N1622      H1625   1.045   1_565  S
N1622      H1626   1.034   1_565  S
N1624      H1627   1.044   1_455  S
N1624      H1628   1.042       .  S
C1633      C1634   1.415       .  A
C1633      C1638   1.404       .  A
C1634      C1635   1.410       .  A
C1634      N1639   1.429       .  S
C1635      C1636   1.404       .  A
C1635      H1640   1.080       .  S
C1636      C1641   1.506       .  S
C1636      C1637   1.413       .  A
C1637      C1638   1.404       .  A
C1637      N1642   1.430       .  S
C1638      H1643   1.083       .  S
N1639      H1659   1.045   1_565  S
N1639      H1660   1.046       .  S
C1641      C1644   1.404       .  A
C1641      C1648   1.414       .  A
N1642      H1657   1.046       .  S
N1642      H1658   1.042       .  S
C1644      C1645   1.399       .  A
C1644      H1649   1.076       .  S
C1645      C1646   1.411       .  A
C1645      N1650   1.439       .  S
C1646      C1647   1.409       .  A
C1647      C1648   1.414       .  A
C1647      H1651   1.084       .  S
C1648      N1652   1.432       .  S
N1650      H1653   1.045       .  S
N1650      H1654   1.043       .  S
N1652      H1655   1.046       .  S
N1652      H1656   1.045       .  S
C1661      C1662   1.399       .  A
C1661      C1666   1.402       .  A
C1662      C1663   1.410       .  A
C1662      N1667   1.436       .  S
C1663      C1664   1.410       .  A
C1663      H1668   1.083       .  S
C1664      C1669   1.492       .  S
C1664      C1665   1.409       .  A
C1665      C1666   1.401       .  A
C1665      N1670   1.432       .  S
C1666      H1671   1.084       .  S
N1667      H1687   1.045       .  S
N1667      H1688   1.041       .  S
C1669      C1672   1.405       .  A
C1669      C1676   1.404       .  A
N1670      H1685   1.044       .  S
N1670      H1686   1.044       .  S
C1672      C1673   1.406       .  A
C1672      H1677   1.083       .  S
C1673      C1674   1.419       .  A
C1673      N1678   1.438       .  S
C1674      C1675   1.399       .  A
C1675      C1676   1.402       .  A
C1675      H1679   1.083       .  S
C1676      N1680   1.424       .  S
N1678      H1681   1.045       .  S
N1678      H1682   1.044       .  S
N1680      H1683   1.046       .  S
N1680      H1684   1.039       .  S
C1689      C1690   1.406       .  A
C1689      C1694   1.398       .  A
C1690      C1691   1.418       .  A
C1690      N1695   1.436       .  S
C1691      C1692   1.414       .  A
C1691      H1696   1.082       .  S
C1692      C1697   1.505       .  S
C1692      C1693   1.408       .  A
C1693      C1694   1.403       .  A
C1693      N1698   1.434       .  S
C1694      H1699   1.078       .  S
N1695      H1715   1.045       .  S
N1695      H1716   1.045       .  S
C1697      C1700   1.409       .  A
C1697      C1704   1.417       .  A
N1698      H1713   1.044       .  S
N1698      H1714   1.042       .  S
C1700      C1701   1.406       .  A
C1700      H1705   1.084       .  S
C1701      C1702   1.414       .  A
C1701      N3618   1.433       .  S
C1702      C1703   1.407       .  A
C1703      C1704   1.411       .  A
C1703      H1707   1.078       .  S
C1704      N1708   1.438       .  S
N1706      C3613   1.438       .  S
N1706      H1709   1.045       .  S
N1706      H1710   1.044       .  S
N1708      H1711   1.044       .  S
N1708      H1712   1.041       .  S
C1717      C1718   1.412       .  A
C1717      C1722   1.399       .  A
C1718      C1719   1.398       .  A
C1718      N1723   1.432       .  S
C1719      C1720   1.404       .  A
C1719      H1724   1.082       .  S
C1720      C1725   1.474       .  S
C1720      C1721   1.404       .  A
C1721      C1722   1.402       .  A
C1721      N1726   1.437       .  S
C1722      H1727   1.076       .  S
N1723      H1743   1.045       .  S
N1723      H1744   1.043       .  S
C1725      C1728   1.402       .  A
C1725      C1732   1.410       .  A
N1726      H1741   1.045       .  S
N1726      H1742   1.045       .  S
C1728      C1729   1.408       .  A
C1728      H1733   1.076       .  S
C1729      C1730   1.398       .  A
C1729      N1734   1.432       .  S
C1730      C1731   1.396       .  A
C1731      C1732   1.398       .  A
C1731      H1735   1.078       .  S
C1732      N1736   1.439       .  S
N1734      H1737   1.036       .  S
N1734      H1738   1.046       .  S
N1736      H1739   1.043       .  S
N1736      H1740   1.042       .  S
C1745      C1746   1.414       .  A
C1745      C1750   1.407       .  A
C1746      C1747   1.398       .  A
C1746      N1751   1.426       .  S
C1747      C1748   1.393       .  A
C1747      H1752   1.083       .  S
C1748      C1753   1.476       .  S
C1748      C1749   1.406       .  A
C1749      C1750   1.408       .  A
C1749      N1754   1.434       .  S
C1750      H1755   1.083       .  S
N1751      H1771   1.042       .  S
N1751      H1772   1.046       .  S
C1753      C1756   1.393       .  A
C1753      C1760   1.418       .  A
N1754      H1769   1.045       .  S
N1754      H1770   1.044       .  S
C1756      C1757   1.399       .  A
C1756      H1761   1.073       .  S
C1757      C1758   1.405       .  A
C1757      N1762   1.432       .  S
C1758      C1759   1.401       .  A
C1759      C1760   1.402       .  A
C1759      H1763   1.084       .  S
C1760      N1764   1.439       .  S
N1762      H1765   1.045       .  S
N1762      H1766   1.043       .  S
N1764      H1767   1.042       .  S
N1764      H1768   1.043       .  S
C1773      C1774   1.405       .  A
C1773      C1778   1.408       .  A
C1774      C1775   1.404       .  A
C1774      N1779   1.430       .  S
C1775      C1776   1.407       .  A
C1775      H1780   1.074       .  S
C1776      C1781   1.502       .  S
C1776      C1777   1.411       .  A
C1777      C1778   1.407       .  A
C1777      N1782   1.432       .  S
C1778      H1783   1.081       .  S
N1779      H1799   1.041       .  S
N1779      H1800   1.046       .  S
C1781      C1784   1.413       .  A
C1781      C1788   1.411       .  A
N1782      H1797   1.045       .  S
N1782      H1798   1.045   1_455  S
C1784      C1785   1.416       .  A
C1784      H1789   1.081       .  S
C1785      C1786   1.411       .  A
C1785      N1790   1.438       .  S
C1786      C1787   1.394       .  A
C1787      C1788   1.394       .  A
C1787      H1791   1.085       .  S
C1788      N1792   1.424       .  S
N1790      H3705   1.046       .  S
N1790      H3706   1.043       .  S
N1792      H1795   1.045       .  S
N1792      H1796   1.044       .  S
H1793      N3702   1.044       .  S
H1794      N3702   1.043       .  S
C1801      C1802   1.410       .  A
C1801      C1806   1.399       .  A
C1802      C1803   1.398       .  A
C1802      N1807   1.432       .  S
C1803      C1804   1.405       .  A
C1803      H1808   1.083       .  S
C1804      C1809   1.492       .  S
C1804      C1805   1.415       .  A
C1805      C1806   1.403       .  A
C1805      N1810   1.434       .  S
C1806      H1811   1.082       .  S
N1807      H1828   1.046       .  S
C1809      C1812   1.405       .  A
C1809      C1816   1.419       .  A
N1810      H1825   1.045       .  S
N1810      H1826   1.044       .  S
C1812      C1813   1.391       .  A
C1812      H1817   1.076       .  S
C1813      C1814   1.402       .  A
C1813      N3730   1.433       .  S
C1814      C1815   1.394       .  A
C1815      C1816   1.401       .  A
C1815      H1819   1.084       .  S
C1816      N1820   1.434       .  S
N1818      C3725   1.432       .  S
N1818      H1821   1.044       .  S
N1818      H1822   1.045       .  S
N1820      H1823   1.046       .  S
N1820      H1824   1.041       .  S
C1829      C1830   1.409       .  A
C1829      C1834   1.401       .  A
C1830      C1831   1.389       .  A
C1830      N1835   1.429       .  S
C1831      C1832   1.391       .  A
C1831      H1836   1.079       .  S
C1832      C1837   1.487       .  S
C1832      C1833   1.416       .  A
C1833      C1834   1.415       .  A
C1833      N1838   1.431       .  S
C1834      H1839   1.083       .  S
N1835      H1855   1.044       .  S
N1835      H1856   1.045       .  S
C1837      C1840   1.402       .  A
C1837      C1844   1.417       .  A
N1838      H1853   1.045       .  S
N1838      H1854   1.036       .  S
C1840      C1841   1.409       .  A
C1840      H1845   1.078       .  S
C1841      C1842   1.408       .  A
C1841      N1846   1.439       .  S
C1842      C1843   1.398       .  A
C1843      C1844   1.402       .  A
C1843      H1847   1.084       .  S
C1844      N1848   1.440       .  S
N1846      H1849   1.043       .  S
N1846      H1850   1.043       .  S
N1848      H1851   1.046       .  S
N1848      H1852   1.041       .  S
C1857      C1858   1.401       .  A
C1857      C1862   1.408       .  A
C1858      C1859   1.379       .  A
C1858      N1863   1.438       .  S
C1859      C1860   1.406       .  A
C1859      H1864   1.082       .  S
C1860      C1865   1.483       .  S
C1860      C1861   1.409       .  A
C1861      C1862   1.409       .  A
C1861      N1866   1.435       .  S
C1862      H1867   1.083       .  S
N1863      H3795   1.044       .  S
N1863      H1884   1.042       .  S
C1865      C1868   1.415       .  A
C1865      C1872   1.405       .  A
N1866      H1881   1.045       .  S
N1866      H1882   1.045       .  S
C1868      C1869   1.418       .  A
C1868      H1873   1.080       .  S
C1869      C1870   1.408       .  A
C1869      N1874   1.435       .  S
C1870      C1871   1.380       .  A
C1871      C1872   1.369       .  A
C1871      H1875   1.070       .  S
C1872      N1876   1.429       .  S
N1874      H1877   1.046       .  S
N1874      H1878   1.045       .  S
N1876      H1879   1.044       .  S
N1876      H1880   1.044       .  S
H1883      N3775   1.044       .  S
C1885      C1886   1.406       .  A
C1885      C1890   1.396       .  A
C1886      C1887   1.397       .  A
C1886      N1891   1.427       .  S
C1887      C1888   1.407       .  A
C1887      H1892   1.081       .  S
C1888      C1893   1.501       .  S
C1888      C1889   1.418       .  A
C1889      C1890   1.405       .  A
C1889      N1894   1.428       .  S
C1890      H1895   1.083       .  S
N1891      H1911   1.045       .  S
N1891      H1912   1.042       .  S
C1893      C1896   1.404       .  A
C1893      C1900   1.416       .  A
N1894      H1909   1.046       .  S
N1894      H1910   1.045       .  S
C1896      C1897   1.403       .  A
C1896      H1901   1.083       .  S
C1897      C1898   1.416       .  A
C1897      N1902   1.434       .  S
C1898      C1899   1.397       .  A
C1899      C1900   1.407       .  A
C1899      H1903   1.084       .  S
C1900      N1904   1.430       .  S
N1902      H1905   1.044       .  S
N1902      H1906   1.046       .  S
N1904      H1907   1.044       .  S
N1904      H1908   1.039       .  S
O1913     Ni1919   1.954   1_556  S
O1913      C1934   1.290       .  A
O1914     Ni1937   1.979       .  S
O1914      C1923   1.319       .  A
O1915     Ni1919   1.793       .  S
O1915     Ni1937   1.881       .  S
O1915     Ni1931   1.879   1_554  S
O1915      H1938   0.962   1_554  S
C1916      O1933   1.318       .  A
C1916      O1925   1.300       .  A
C1916      C2039   1.527       .  S
O1917     Ni1936   1.927   1_554  S
O1917      C1923   1.286       .  A
O1918     Ni1936   1.971       .  S
O1918      C1920   1.276       .  A
Ni1919     O1922   2.008       .  S
Ni1919     O1924   1.961       .  S
C1920      O1930   1.278       .  A
C1920      C2048   1.532       .  S
O1921     Ni1937   1.918       .  S
O1921      C1927   1.304       .  A
O1922      C1927   1.318       .  A
C1923      C2158   1.492       .  S
O1924      C1926   1.282       .  A
O1925     Ni1936   1.984       .  S
C1926      O1932   1.305       .  A
C1926      C2174   1.528       .  S
C1927      C2189   1.508       .  S
H1928      O1929   0.967       .  S
O1929     Ni1937   1.887       .  S
O1929     Ni1931   1.810   1_554  S
O1929     Ni1936   1.849   1_554  S
O1930     Ni1931   1.963       .  S
Ni1931     O1935   1.914       .  S
Ni1931     O1933   1.991       .  S
O1932     Ni1937   1.964       .  S
C1934      O1935   1.295       .  A
C1934      C2023   1.487       .  S
O1939     Ni1945   1.880       .  S
O1939      C1960   1.269       .  A
O1940     Ni1963   1.977       .  S
O1940      C1949   1.302       .  A
O1941     Ni1945   1.921       .  S
O1941     Ni1963   1.889       .  S
O1941     Ni1957   1.868       .  S
O1941      H1964   0.968       .  S
C1942      O1959   1.296       .  A
C1942      O1951   1.289       .  A
C1942      C2181   1.510       .  S
O1943     Ni1962   1.948       .  S
O1943      C1949   1.283       .  A
O1944     Ni1962   1.938       .  S
O1944      C1946   1.271       .  A
Ni1945     O1948   1.934       .  S
Ni1945     O1950   1.933       .  S
C1946      O1956   1.298       .  A
C1946      C2165   1.547       .  S
O1947     Ni1963   2.001       .  S
O1947      C1953   1.322       .  A
O1948      C1953   1.285       .  A
C1949      C2032   1.520       .  S
O1950      C1952   1.261       .  A
O1951     Ni1962   1.970       .  S
C1952      O1958   1.271       .  A
C1952      C2007   1.522       .  S
C1953      C2016   1.533       .  S
H1954      O1955   0.965       .  S
O1955     Ni1963   1.945       .  S
O1955     Ni1957   1.904       .  S
O1955     Ni1962   1.890       .  S
O1956     Ni1957   2.012       .  S
Ni1957     O1961   1.986       .  S
Ni1957     O1959   1.959       .  S
O1958     Ni1963   1.973       .  S
C1960      O1961   1.313       .  A
C1960      C2135   1.503       .  S
O1965     Ni2929   1.920   1_545  S
O1965      C1975   1.284       .  A
O1966     Ni1973   1.928       .  S
O1966      C1976   1.286       .  A
O1967     Ni1973   1.900       .  S
O1967      C1977   1.276       .  A
O1968     Ni2929   1.883   1_545  S
O1968      C1978   1.274       .  A
O1969     Ni2930   1.926   1_545  S
O1969      C1978   1.283       .  A
O1970     Ni1974   1.932       .  S
O1970      C1977   1.285       .  A
O1971     Ni1974   1.910       .  S
O1971      C1976   1.279       .  A
O1972     Ni2930   1.911   1_545  S
O1972      C1975   1.278       .  A
Ni1973     O2921   1.912       .  S
Ni1973     O2924   1.882       .  S
Ni1973    Ni1974   2.390       .  S
Ni1974     O2925   1.927       .  S
Ni1974     O2928   1.906       .  S
C1975      C2757   1.481       .  S
C1976      C2854   1.493       .  S
C1977      C2785   1.472       .  S
C1978      C2826   1.455       .  S
O1979     Ni1987   1.921       .  S
O1979      C1989   1.281       .  A
O1980     Ni1987   1.936       .  S
O1980      C1990   1.286       .  A
O1981     Ni1987   1.914       .  S
O1981      C1991   1.281       .  A
O1982     Ni1987   1.904       .  S
O1982      C1992   1.275       .  A
O1983     Ni1988   1.921       .  S
O1983      C1992   1.282       .  A
O1984     Ni1988   1.936       .  S
O1984      C1991   1.287       .  A
O1985     Ni1988   1.901       .  S
O1985      C1990   1.276       .  A
O1986     Ni1988   1.885       .  S
O1986      C1989   1.274       .  A
Ni1987    Ni1988   2.389       .  S
C1989      C2701   1.456       .  S
C1990      C2645   1.472       .  S
C1991      C2729   1.497       .  S
C1992      C2686   1.463       .  S
O1993      C2003   1.285       .  A
O1994     Ni2001   1.932       .  S
O1994      C2004   1.285       .  A
O1995     Ni2001   1.893       .  S
O1995      C2005   1.275       .  A
O1996      C2006   1.283       .  A
O1997      C2006   1.280       .  A
O1998     Ni2002   1.910       .  S
O1998      C2005   1.281       .  A
O1999     Ni2002   1.900       .  S
O1999      C2004   1.277       .  A
O2000      C2003   1.279       .  A
Ni2001    Ni2002   2.385       .  S
C2003      C2574   1.498       .  S
C2004      C2617   1.479       .  S
C2005      C2533   1.460       .  S
C2006      C2589   1.491       .  S
C2007      C2012   1.408       .  A
C2008      C2069   1.498       .  S
C2008      C2009   1.415       .  A
C2009      C2010   1.389       .  A
C2009      H2014   1.086       .  S
C2010      C2742   1.487       .  S
C2011      C2813   1.468       .  S
C2011      C2012   1.394       .  A
C2012      H2013   1.087       .  S
C2015      C2065   1.523       .  S
C2015      C2972   1.475       .  A
C2015      C2020   1.419       .  A
C2016      C2971   1.479   1_545  A
C2016      C2017   1.407       .  A
C2017      C2018   1.386       .  A
C2017      H2022   1.084       .  S
C2018      C2714   1.463       .  S
C2018      C2975   1.403   1_545  A
C2019      C2602   1.489       .  S
C2019      C2974   1.405       .  A
C2019      C2020   1.396       .  A
C2020      H2021   1.084       .  S
C2023      C2024   1.437       .  A
C2023      C2028   1.407       .  A
C2024      C2091   1.489       .  S
C2024      C2025   1.412       .  A
C2025      C2026   1.393       .  A
C2025      H2030   1.085       .  S
C2026      C2798   1.484       .  S
C2026      C2027   1.406       .  A
C2027      C2546   1.466       .  S
C2027      C2028   1.383       .  A
C2028      H2029   1.086       .  S
C2031      C2068   1.519       .  S
C2031      C2032   1.459       .  A
C2031      C2036   1.414       .  A
C2032      C2033   1.417       .  A
C2033      C2034   1.405       .  A
C2033      H2038   1.085       .  S
C2034      C2630   1.491       .  S
C2034      C2035   1.410       .  A
C2035      C2841   1.489       .  S
C2035      C2036   1.396       .  A
C2036      H2037   1.084       .  S
C2039      C2996   1.471   1_545  A
C2039      C2044   1.406       .  A
C2040      C2094   1.535       .  S
C2040      C2995   1.475       .  A
C2040      C2041   1.412       .  A
C2041      C2042   1.400       .  A
C2041      H2046   1.086       .  S
C2042      C2561   1.488       .  S
C2042      C2999   1.414       .  A
C2043      C2673   1.485       .  S
C2043      C2998   1.416   1_545  A
C2043      C2044   1.395       .  A
C2044      H2045   1.085       .  S
C2047      C2095   1.548       .  S
C2047      C2052   1.424       .  A
C2048      C2049   1.415       .  A
C2049      C2050   1.392       .  A
C2049      H2054   1.086       .  S
C2050      C2770   1.478       .  S
C2051      C2658   1.490       .  S
C2051      C2052   1.397       .  A
C2052      H2053   1.083       .  S
O2055     Ni2061   1.952       .  S
O2055      C2076   1.283       .  A
O2056     Ni2079   2.020       .  S
O2056      C2065   1.318       .  A
O2057     Ni2061   1.888       .  S
O2057     Ni2079   1.909       .  S
O2057     Ni2073   1.926       .  S
O2057      H2080   0.966       .  S
C2058      O2075   1.314       .  A
C2058      O2067   1.282       .  A
C2058      C2136   1.510       .  S
O2059     Ni2078   1.881       .  S
O2059      C2065   1.269       .  A
O2060     Ni2078   1.915       .  S
O2060      C2062   1.258       .  A
Ni2061     O2064   1.965       .  S
Ni2061     O2066   1.928       .  S
C2062      O2072   1.264       .  A
C2062      C2182   1.497       .  S
O2063     Ni2079   1.951       .  S
O2063      C2069   1.296       .  A
O2064      C2069   1.289       .  A
O2066      C2068   1.269       .  A
O2067     Ni2078   1.917       .  S
C2068      O2074   1.292       .  A
H2070      O2071   0.967       .  S
O2071     Ni2079   1.860       .  S
O2071     Ni2073   1.895       .  S
O2071     Ni2078   1.914       .  S
O2072     Ni2073   1.954       .  S
Ni2073     O2077   1.982       .  S
Ni2073     O2075   1.976       .  S
O2074     Ni2079   1.976       .  S
C2076      O2077   1.302       .  A
C2076      C2166   1.530       .  S
O2081     Ni2087   1.931   1_554  S
O2081      C2102   1.287       .  A
O2082     Ni2105   1.923       .  S
O2082      C2091   1.296       .  A
O2083     Ni2087   1.854   1_554  S
O2083     Ni2105   1.820   1_554  S
O2083     Ni2099   1.892       .  S
O2083      H2106   0.966       .  S
C2084      O2101   1.304       .  A
C2084      O2093   1.319       .  A
C2084      C2157   1.498       .  S
O2085     Ni2104   1.956   1_556  S
O2085      C2091   1.291       .  A
O2086     Ni2104   1.970       .  S
O2086      C2088   1.284       .  A
Ni2087     O2090   1.993       .  S
Ni2087     O2092   1.965       .  S
C2088      O2098   1.303       .  A
C2088      C2173   1.537       .  S
O2089     Ni2105   1.986       .  S
O2089      C2095   1.319       .  A
O2090      C2095   1.300       .  A
O2092      C2094   1.279       .  A
O2093     Ni2104   2.014       .  S
C2094      O2100   1.277       .  A
H2096      O2097   0.962   1_556  S
O2097     Ni2105   1.871   1_554  S
O2097     Ni2099   1.879       .  S
O2097     Ni2104   1.788       .  S
O2098     Ni2099   1.965       .  S
Ni2099     O2103   1.973       .  S
Ni2099     O2101   1.912       .  S
O2100     Ni2105   1.979       .  S
C2102      O2103   1.316       .  A
C2102      C2190   1.500       .  S
O2107      C2117   1.286       .  A
O2108     Ni2115   1.951       .  S
O2108      C2118   1.288       .  A
O2109     Ni2115   1.917       .  S
O2109      C2119   1.281       .  A
O2110      C2120   1.283   1_455  A
O2111      C2120   1.282       .  A
O2112     Ni2116   1.935       .  S
O2112      C2119   1.287       .  A
O2113     Ni2116   1.934       .  S
O2113      C2118   1.283       .  A
O2114      C2117   1.279       .  A
Ni2115    Ni2116   2.385       .  S
C2117      C2449   1.484       .  S
C2118      C2477   1.506       .  S
C2119      C2518   1.508       .  S
C2120      C2434   1.486       .  S
O2121     Ni2129   1.891       .  S
O2121      C2131   1.277       .  A
O2122     Ni2129   1.897       .  S
O2122      C2132   1.278       .  A
O2123     Ni2129   1.883       .  S
O2123      C2133   1.277       .  A
O2124     Ni2129   1.872       .  S
O2124      C2134   1.273       .  A
O2125     Ni2130   1.903       .  S
O2125      C2134   1.279       .  A
O2126     Ni2130   1.920       .  S
O2126      C2133   1.282       .  A
O2127     Ni2130   1.909       .  S
O2127      C2132   1.281       .  A
O2128     Ni2130   1.900       .  S
O2128      C2131   1.279       .  A
Ni2129    Ni2130   2.390       .  S
C2131      C2365   1.454       .  S
C2132      C2337   1.480       .  S
C2133      C2322   1.476       .  S
C2134      C2406   1.449       .  S
C2135      C3092   1.464   1_545  A
C2135      C2140   1.414       .  A
C2136      C3091   1.460       .  A
C2136      C2137   1.400       .  A
C2137      C2138   1.382       .  A
C2137      H2142   1.084       .  S
C2138      C2378   1.453       .  S
C2138      C3095   1.404       .  A
C2139      C2421   1.503       .  S
C2139      C3094   1.406   1_545  A
C2139      C2140   1.386       .  A
C2140      H2141   1.082       .  S
O2143     Ni3107   1.901       .  S
O2143      C2153   1.277       .  A
O2144     Ni2151   1.913       .  S
O2144      C2154   1.278       .  A
O2145     Ni2151   1.944       .  S
O2145      C2155   1.289       .  A
O2146     Ni3107   1.925       .  S
O2146      C2156   1.285       .  A
O2147     Ni3108   1.894       .  S
O2147      C2156   1.277       .  A
O2148     Ni2152   1.904       .  S
O2148      C2155   1.278       .  A
O2149     Ni2152   1.937       .  S
O2149      C2154   1.286       .  A
O2150     Ni3108   1.925       .  S
O2150      C2153   1.284       .  A
Ni2151     O3099   1.893   1_545  S
Ni2151     O3102   1.922   1_545  S
Ni2151    Ni2152   2.389       .  S
Ni2152     O3103   1.884   1_545  S
Ni2152     O3106   1.921   1_545  S
C2153      C2197   1.472       .  S
C2154      C2281   1.484       .  S
C2155      C2253   1.493       .  S
C2156      C2225   1.482       .  S
C2157      C3114   1.455       .  A
C2157      C2162   1.403       .  A
C2158      C3113   1.454   1_545  A
C2158      C2159   1.412       .  A
C2159      C2160   1.391       .  A
C2159      H2164   1.085       .  S
C2160      C2462   1.495       .  S
C2160      C3117   1.404   1_545  A
C2161      C2393   1.458       .  S
C2161      C3116   1.400       .  A
C2161      C2162   1.386       .  A
C2162      H2163   1.087       .  S
C2165      C2166   1.463       .  A
C2165      C2170   1.427       .  A
C2166      C2167   1.421       .  A
C2167      C2168   1.411       .  A
C2167      H2172   1.084       .  S
C2168      C2490   1.506       .  S
C2168      C2169   1.416       .  A
C2169      C2266   1.514       .  S
C2169      C2170   1.420       .  A
C2170      H2171   1.083       .  S
C2173      C2174   1.478       .  A
C2173      C2178   1.425       .  A
C2174      C2175   1.420       .  A
C2175      C2176   1.399       .  A
C2175      H2180   1.085       .  S
C2176      C2294   1.499       .  S
C2176      C2177   1.408       .  A
C2177      C2505   1.495       .  S
C2177      C2178   1.407       .  A
C2178      H2179   1.085       .  S
C2181      C2186   1.413       .  A
C2182      C2183   1.409       .  A
C2183      C2184   1.394       .  A
C2183      H2188   1.086       .  S
C2184      C2210   1.478       .  S
C2185      C2309   1.471       .  S
C2185      C2186   1.394       .  A
C2186      H2187   1.086       .  S
C2189      C2194   1.406       .  A
C2190      C2191   1.409       .  A
C2191      C2192   1.386       .  A
C2191      H2196   1.085       .  S
C2192      C2238   1.476       .  S
C2193      C2350   1.476       .  S
C2193      C2194   1.387       .  A
C2194      H2195   1.086       .  S
C2197      C2198   1.401       .  A
C2197      C2202   1.403       .  A
C2198      C2199   1.405       .  A
C2198      N2203   1.428       .  S
C2199      C2200   1.404       .  A
C2199      H2204   1.079       .  S
C2200      C2205   1.480       .  S
C2200      C2201   1.409       .  A
C2201      C2202   1.400       .  A
C2201      N2206   1.435       .  S
C2202      H2207   1.084       .  S
N2203      H2223   1.046       .  S
N2203      H2224   1.041       .  S
C2205      C2208   1.401       .  A
C2205      C2212   1.409       .  A
N2206      H2221   1.046       .  S
N2206      H2222   1.045       .  S
C2208      C2209   1.397       .  A
C2208      H2213   1.080       .  S
C2209      C2210   1.409       .  A
C2209      N2214   1.433       .  S
C2210      C2211   1.403       .  A
C2211      C2212   1.403       .  A
C2211      H2215   1.084       .  S
C2212      N2216   1.431       .  S
N2214      H2217   1.044       .  S
N2214      H2218   1.044       .  S
N2216      H2219   1.044       .  S
N2216      H2220   1.046       .  S
C2225      C2226   1.406       .  A
C2225      C2230   1.404       .  A
C2226      C2227   1.406       .  A
C2226      N2231   1.436       .  S
C2227      C2228   1.413       .  A
C2227      H2232   1.078       .  S
C2228      C2233   1.507       .  S
C2228      C2229   1.418       .  A
C2229      C2230   1.398       .  A
C2229      N2234   1.433       .  S
C2230      H2235   1.084       .  S
N2231      H2251   1.046       .  S
N2231      H2252   1.042       .  S
C2233      C2236   1.412       .  A
C2233      C2240   1.414       .  A
N2234      H2249   1.046       .  S
N2234      H2250   1.046       .  S
C2236      C2237   1.404       .  A
C2236      H2241   1.078       .  S
C2237      C2238   1.407       .  A
C2238      C2239   1.391       .  A
C2239      C2240   1.394       .  A
C2239      H2243   1.085       .  S
C2240      N2244   1.425       .  S
N2242      H2245   1.045       .  S
N2242      H2246   1.045       .  S
N2244      H2247   1.045       .  S
N2244      H2248   1.046       .  S
C2253      C2254   1.399       .  A
C2253      C2258   1.407       .  A
C2254      C2255   1.412       .  A
C2254      N2259   1.430       .  S
C2255      C2256   1.413       .  A
C2255      H2260   1.068       .  S
C2256      C2261   1.529       .  S
C2256      C2257   1.417       .  A
C2257      C2258   1.410       .  A
C2257      N2262   1.427       .  S
C2258      H2263   1.084       .  S
N2259      H2279   1.044       .  S
N2259      H2280   1.045       .  S
C2261      C2264   1.412       .  A
C2261      C2268   1.416       .  A
N2262      H2277   1.040       .  S
N2262      H2278   1.044       .  S
C2264      C2265   1.416       .  A
C2264      H2269   1.080       .  S
C2265      C2266   1.423       .  A
C2265      N2270   1.438       .  S
C2266      C2267   1.396       .  A
C2267      C2268   1.411       .  A
C2267      H2271   1.078       .  S
C2268      N2272   1.426       .  S
N2270      H2273   1.045       .  S
N2270      H2274   1.044       .  S
N2272      H2275   1.045       .  S
N2272      H2276   1.043       .  S
C2281      C2282   1.399       .  A
C2281      C2286   1.402       .  A
C2282      C2283   1.419       .  A
C2282      N2287   1.432       .  S
C2283      C2284   1.411       .  A
C2283      H2288   1.083       .  S
C2284      C2289   1.505       .  S
C2284      C2285   1.411       .  A
C2285      C2286   1.408       .  A
C2285      N2290   1.428       .  S
C2286      H2291   1.084       .  S
N2287      H2307   1.045       .  S
N2287      H2308   1.037       .  S
C2289      C2292   1.406       .  A
C2289      C2296   1.419       .  A
N2290      H2305   1.043       .  S
N2290      H2306   1.043       .  S
C2292      C2293   1.408       .  A
C2292      H2297   1.081       .  S
C2293      C2294   1.418       .  A
C2293      N2298   1.433       .  S
C2294      C2295   1.400       .  A
C2295      C2296   1.407       .  A
C2295      H2299   1.084       .  S
C2296      N2300   1.429       .  S
N2298      H2301   1.045       .  S
N2298      H2302   1.043       .  S
N2300      H2303   1.046       .  S
N2300      H2304   1.046       .  S
C2309      C2310   1.411       .  A
C2309      C2314   1.395       .  A
C2310      C2311   1.408       .  A
C2310      N2315   1.438       .  S
C2311      C2312   1.404       .  A
C2311      H2316   1.083       .  S
C2312      C2317   1.477       .  S
C2312      C2313   1.403       .  A
C2313      C2314   1.390       .  A
C2313      N2318   1.426       .  S
N2315      H2335   1.045       .  S
N2315      H2336   1.046       .  S
C2317      C2320   1.402       .  A
C2317      C2324   1.404       .  A
N2318      H2334   1.039       .  S
C2320      C2321   1.406       .  A
C2320      H2325   1.083   1_655  S
C2321      C2322   1.409       .  A
C2321      N2326   1.426   1_655  S
C2322      C2323   1.400       .  A
C2323      C2324   1.388       .  A
C2323      H2327   1.082       .  S
C2324      N2328   1.427       .  S
N2326      H2329   1.041       .  S
N2326      H2330   1.044       .  S
N2328      H2331   1.038       .  S
N2328      H2332   1.046       .  S
C2337      C2338   1.414       .  A
C2337      C2342   1.404       .  A
C2338      C2339   1.398       .  A
C2338      N2343   1.437       .  S
C2339      C2340   1.398       .  A
C2339      H2344   1.079       .  S
C2340      C2345   1.491       .  S
C2340      C2341   1.412       .  A
C2341      C2342   1.401       .  A
C2341      N2346   1.429       .  S
C2342      H2347   1.084       .  S
N2343      H2363   1.044       .  S
N2343      H2364   1.046       .  S
C2345      C2348   1.406       .  A
C2345      C2352   1.422       .  A
N2346      H2361   1.045   1_655  S
N2346      H2362   1.044       .  S
C2348      C2349   1.402       .  A
C2348      H2353   1.083       .  S
C2349      C2350   1.413       .  A
C2349      N2354   1.432       .  S
C2350      C2351   1.391       .  A
C2351      C2352   1.390       .  A
C2351      H2355   1.083       .  S
C2352      N2356   1.429       .  S
N2354      H2357   1.045       .  S
N2354      H2358   1.045   1_655  S
N2356      H2359   1.041       .  S
N2356      H2360   1.038       .  S
C2365      C2366   1.403       .  A
C2365      C2370   1.408       .  A
C2366      C2367   1.382       .  A
C2366      N2371   1.432       .  S
C2367      C2368   1.394       .  A
C2367      H2372   1.077       .  S
C2368      C2373   1.458       .  S
C2368      C2369   1.406       .  A
C2369      C2370   1.403       .  A
C2369      N2374   1.438       .  S
C2370      H2375   1.084       .  S
N2371      H2391   1.046       .  S
N2371      H2392   1.045       .  S
C2373      C2376   1.394       .  A
C2373      C2380   1.420       .  A
N2374      H2389   1.046       .  S
N2374      H2390   1.044       .  S
C2376      C2377   1.388       .  A
C2376      H2381   1.080       .  S
C2377      C2378   1.402       .  A
C2377      N3338   1.431       .  S
C2378      C2379   1.393       .  A
C2379      C2380   1.389       .  A
C2379      H2383   1.084       .  S
C2380      N2384   1.437       .  S
N2382      C3333   1.432       .  S
N2382      H2385   1.042   1_565  S
N2382      H2386   1.044       .  S
N2384      H2387   1.040       .  S
N2384      H2388   1.046       .  S
C2393      C2394   1.402       .  A
C2393      C2398   1.398       .  A
C2394      C2395   1.391       .  A
C2394      N2399   1.436       .  S
C2395      C2396   1.397       .  A
C2395      H2400   1.077       .  S
C2396      C2401   1.463       .  S
C2396      C2397   1.410       .  A
C2397      C2398   1.396       .  A
C2397      N2402   1.434       .  S
C2398      H2403   1.084       .  S
N2399      H2419   1.045       .  S
N2399      H2420   1.043       .  S
C2401      C2404   1.387       .  A
C2401      C2408   1.399       .  A
N2402      H2417   1.045       .  S
N2402      H2418   1.046       .  S
C2404      C2405   1.384       .  A
C2404      H2409   1.065       .  S
C2405      C2406   1.406       .  A
C2405      N2410   1.427       .  S
C2406      C2407   1.393       .  A
C2407      C2408   1.395       .  A
C2407      H2411   1.084       .  S
C2408      N2412   1.416       .  S
N2410      H2413   1.040       .  S
N2410      H2414   1.045       .  S
N2412      H2415   1.042       .  S
N2412      H2416   1.044       .  S
C2421      C2422   1.415       .  A
C2421      C2426   1.408       .  A
C2422      C2423   1.399       .  A
C2422      N2427   1.430       .  S
C2423      C2424   1.396       .  A
C2423      H2428   1.076       .  S
C2424      C2429   1.488       .  S
C2424      C2425   1.407       .  A
C2425      C2426   1.410       .  A
C2425      N2430   1.432       .  S
C2426      H2431   1.083       .  S
N2427      H2447   1.043       .  S
N2427      H2448   1.043       .  S
C2429      C2432   1.400       .  A
C2429      C2436   1.412       .  A
N2430      H2445   1.043       .  S
N2430      H2446   1.045       .  S
C2432      C2433   1.408       .  A
C2432      H2437   1.083   1_655  S
C2433      C2434   1.415       .  A
C2433      N2438   1.437   1_655  S
C2434      C2435   1.404       .  A
C2435      C2436   1.410       .  A
C2435      H2439   1.084       .  S
C2436      N2440   1.433       .  S
N2438      H2441   1.045       .  S
N2438      H2442   1.037       .  S
N2440      H3399   1.045       .  S
N2440      H3400   1.044       .  S
H2443      N3396   1.046       .  S
H2444      N3396   1.045       .  S
C2449      C2450   1.409       .  A
C2449      C2454   1.402       .  A
C2450      C2451   1.414       .  A
C2450      N2455   1.430       .  S
C2451      C2452   1.409       .  A
C2451      H2456   1.082       .  S
C2452      C2457   1.503       .  S
C2452      C2453   1.411       .  A
C2453      C2454   1.399       .  A
C2453      N2458   1.428       .  S
C2454      H2459   1.083   1_655  S
N2455      H2475   1.046       .  S
N2455      H2476   1.046       .  S
C2457      C2460   1.404       .  A
C2457      C2464   1.427       .  A
N2458      H2473   1.037       .  S
N2458      H2474   1.041       .  S
C2460      C2461   1.406       .  A
C2460      H2465   1.077       .  S
C2461      C2462   1.398       .  A
C2461      N2466   1.424       .  S
C2462      C2463   1.400       .  A
C2463      C2464   1.404       .  A
C2463      H3423   1.082       .  S
C2464      N2468   1.438       .  S
N2466      H2469   1.044       .  S
N2466      H2470   1.038       .  S
H2467      C3419   1.084       .  S
N2468      H3427   1.046       .  S
N2468      H2472   1.042       .  S
H2471      N3424   1.045       .  S
C2477      C2478   1.418       .  A
C2477      C2482   1.407       .  A
C2478      C2479   1.404       .  A
C2478      N2483   1.435       .  S
C2479      C2480   1.400       .  A
C2479      H2484   1.081       .  S
C2480      C2485   1.514       .  S
C2480      C2481   1.420       .  A
C2481      C2482   1.422       .  A
C2481      N2486   1.429       .  S
C2482      H2487   1.083       .  S
N2483      H2503   1.028       .  S
N2483      H2504   1.045       .  S
C2485      C2488   1.406       .  A
C2485      C2492   1.421       .  A
N2486      H2501   1.044       .  S
N2486      H2502   1.039       .  S
C2488      C2489   1.413       .  A
C2488      H2493   1.081       .  S
C2489      C2490   1.414       .  A
C2489      N2494   1.436       .  S
C2490      C2491   1.401       .  A
C2491      C2492   1.413       .  A
C2491      H2495   1.084       .  S
C2492      N2496   1.433       .  S
N2494      H2497   1.045       .  S
N2494      H2498   1.045       .  S
N2496      H2499   1.046       .  S
N2496      H2500   1.045       .  S
C2505      C2506   1.414       .  A
C2505      C2510   1.391       .  A
C2506      C2507   1.421       .  A
C2506      N2511   1.435       .  S
C2507      C2508   1.412       .  A
C2507      H2512   1.082       .  S
C2508      C2513   1.514       .  S
C2508      C2509   1.413       .  A
C2509      C2510   1.397       .  A
C2509      N2514   1.420       .  S
C2510      H2515   1.083       .  S
N2511      H2531   1.045       .  S
N2511      H2532   1.046       .  S
C2513      C2516   1.405       .  A
C2513      C2520   1.415       .  A
N2514      H2529   1.045       .  S
N2514      H2530   1.044       .  S
C2516      C2517   1.407       .  A
C2516      H2521   1.078       .  S
C2517      C2518   1.418       .  A
C2517      N2522   1.433       .  S
C2518      C2519   1.410       .  A
C2519      C2520   1.414       .  A
C2519      H2523   1.083       .  S
C2520      N2524   1.430       .  S
N2522      H2525   1.044       .  S
N2522      H2526   1.042       .  S
N2524      H2527   1.042       .  S
N2524      H2528   1.042       .  S
C2533      C2534   1.407       .  A
C2533      C2538   1.394       .  A
C2534      C2535   1.390       .  A
C2534      N2539   1.430       .  S
C2535      C2536   1.397       .  A
C2535      H2540   1.078       .  S
C2536      C2541   1.484       .  S
C2536      C2537   1.411       .  A
C2537      C2538   1.403       .  A
C2537      N2542   1.426       .  S
C2538      H2543   1.084       .  S
N2539      H2559   1.044       .  S
N2539      H2560   1.042       .  S
C2541      C2544   1.401       .  A
C2541      C2548   1.416       .  A
N2542      H2557   1.037       .  S
N2542      H2558   1.037       .  S
C2544      C2545   1.387       .  A
C2544      H2549   1.076       .  S
C2545      C2546   1.400       .  A
C2545      N2550   1.432       .  S
C2546      C2547   1.398       .  A
C2547      C2548   1.403       .  A
C2547      H2551   1.084       .  S
C2548      N2552   1.438       .  S
N2550      H2553   1.043       .  S
N2550      H2554   1.042       .  S
N2552      H2555   1.045       .  S
N2552      H2556   1.045       .  S
C2561      C2562   1.398       .  A
C2561      C2566   1.400       .  A
C2562      C2563   1.405       .  A
C2562      N2567   1.435       .  S
C2563      C2564   1.415       .  A
C2563      H2568   1.074       .  S
C2564      C2569   1.523       .  S
C2564      C2565   1.430       .  A
C2565      C2566   1.408       .  A
C2565      N2570   1.437       .  S
C2566      H3527   1.084       .  S
N2567      H2587   1.039       .  S
N2567      H2588   1.044       .  S
C2569      C2572   1.414       .  A
C2569      C2576   1.417       .  A
N2570      H3541   1.044       .  S
N2570      H2586   1.045       .  S
H2571      C3522   1.083   1_545  S
C2572      C2573   1.414       .  A
C2572      H2577   1.073       .  S
C2573      C2574   1.412       .  A
C2573      N2578   1.435       .  S
C2574      C2575   1.403       .  A
C2575      C2576   1.398       .  A
C2575      H2579   1.084       .  S
C2576      N2580   1.428       .  S
N2578      H2581   1.045       .  S
N2578      H2582   1.038       .  S
N2580      H2583   1.045       .  S
N2580      H2584   1.044       .  S
H2585      N3526   1.043       .  S
C2589      C2590   1.413       .  A
C2589      C2594   1.402       .  A
C2590      C2591   1.412       .  A
C2590      N2595   1.432       .  S
C2591      C2592   1.412       .  A
C2591      H2596   1.079       .  S
C2592      C2597   1.512       .  S
C2592      C2593   1.415       .  A
C2593      C2594   1.395       .  A
C2593      N2598   1.425       .  S
C2594      H2599   1.084       .  S
N2595      H2615   1.046       .  S
N2595      H2616   1.045       .  S
C2597      C2600   1.408       .  A
C2597      C2604   1.416       .  A
N2598      H2613   1.046       .  S
N2598      H2614   1.046       .  S
C2600      C2601   1.395       .  A
C2600      H2605   1.070       .  S
C2601      C2602   1.403       .  A
C2601      N2606   1.432       .  S
C2602      C2603   1.406       .  A
C2603      C2604   1.412       .  A
C2603      H2607   1.084       .  S
C2604      N2608   1.432       .  S
N2606      H2609   1.043       .  S
N2606      H2610   1.044       .  S
N2608      H2611   1.046       .  S
N2608      H2612   1.045       .  S
C2617      C2618   1.404       .  A
C2617      C2622   1.400       .  A
C2618      C2619   1.414       .  A
C2618      N2623   1.436       .  S
C2619      C2620   1.409       .  A
C2619      H2624   1.081       .  S
C2620      C2625   1.500       .  S
C2620      C2621   1.412       .  A
C2621      C2622   1.397       .  A
C2621      N2626   1.430       .  S
C2622      H2627   1.084       .  S
N2623      H2643   1.045       .  S
N2623      H2644   1.044       .  S
C2625      C2628   1.410       .  A
C2625      C2632   1.407       .  A
N2626      H2641   1.045       .  S
N2626      H2642   1.043       .  S
C2628      C2629   1.403       .  A
C2628      H2633   1.084       .  S
C2629      C2630   1.411       .  A
C2629      N2634   1.432       .  S
C2630      C2631   1.403       .  A
C2631      C2632   1.404       .  A
C2631      H2635   1.081       .  S
C2632      N2636   1.426       .  S
N2634      H2637   1.045       .  S
N2634      H2638   1.045       .  S
N2636      H2639   1.043       .  S
N2636      H2640   1.042       .  S
C2645      C2646   1.406       .  A
C2645      C2650   1.400       .  A
C2646      C2647   1.414       .  A
C2646      N2651   1.436       .  S
C2647      C2648   1.409       .  A
C2647      H2652   1.082       .  S
C2648      C2653   1.484       .  S
C2648      C2649   1.402       .  A
C2649      C2650   1.399       .  A
C2649      N2654   1.435       .  S
C2650      H2655   1.082       .  S
N2651      H2671   1.045       .  S
N2651      H2672   1.045       .  S
C2653      C2656   1.404       .  A
C2653      C2660   1.410       .  A
N2654      H2669   1.043       .  S
N2654      H2670   1.044       .  S
C2656      C2657   1.405       .  A
C2656      H2661   1.084       .  S
C2657      C2658   1.417       .  A
C2658      C2659   1.396       .  A
C2659      C2660   1.399       .  A
C2659      H2663   1.076       .  S
C2660      N2664   1.432       .  S
N2662      H2665   1.045   1_455  S
N2662      H2666   1.044       .  S
N2664      H2667   1.041       .  S
N2664      H2668   1.043       .  S
C2673      C2674   1.408       .  A
C2673      C2678   1.401   1_545  A
C2674      C2675   1.396       .  A
C2674      N2679   1.432       .  S
C2675      C2676   1.405       .  A
C2675      H2680   1.079       .  S
C2676      C2681   1.479       .  S
C2676      C2677   1.405       .  A
C2677      C2678   1.402   1_545  A
C2677      N2682   1.437   1_545  S
C2678      H2683   1.079       .  S
N2679      H2699   1.045       .  S
N2679      H2700   1.044       .  S
C2681      C2684   1.407       .  A
C2681      C2688   1.410       .  A
N2682      H2697   1.046       .  S
N2682      H2698   1.045       .  S
C2684      C2685   1.411       .  A
C2684      H2689   1.080       .  S
C2685      C2686   1.405       .  A
C2685      N2690   1.435       .  S
C2686      C2687   1.396       .  A
C2687      C2688   1.397       .  A
C2687      H2691   1.079       .  S
C2688      N2692   1.440       .  S
N2690      H2693   1.043       .  S
N2690      H2694   1.045       .  S
N2692      H2695   1.045       .  S
N2692      H2696   1.042       .  S
C2701      C2702   1.408       .  A
C2701      C2706   1.400       .  A
C2702      C2703   1.383       .  A
C2702      N2707   1.433       .  S
C2703      C2704   1.384       .  A
C2703      H2708   1.073       .  S
C2704      C2709   1.464       .  S
C2704      C2705   1.409       .  A
C2705      C2706   1.406       .  A
C2705      N2710   1.429   1_545  S
C2706      H2711   1.083       .  S
N2707      H2727   1.043       .  S
N2707      H2728   1.040       .  S
C2709      C2712   1.398       .  A
C2709      C2716   1.423       .  A
N2710      H2725   1.043       .  S
N2710      H2726   1.045       .  S
C2712      C2713   1.395       .  A
C2712      H2717   1.081       .  S
C2713      C2714   1.398       .  A
C2713      N2718   1.428       .  S
C2714      C2715   1.392       .  A
C2715      C2716   1.392       .  A
C2715      H2719   1.084       .  S
C2716      N2720   1.439       .  S
N2718      H2721   1.044       .  S
N2718      H2722   1.042       .  S
N2720      H2723   1.043       .  S
N2720      H2724   1.041       .  S
C2729      C2730   1.412       .  A
C2729      C2734   1.408       .  A
C2730      C2731   1.412       .  A
C2730      N2735   1.437       .  S
C2731      C2732   1.412       .  A
C2731      H2736   1.082       .  S
C2732      C2737   1.511       .  S
C2732      C2733   1.414       .  A
C2733      C2734   1.406       .  A
C2733      N2738   1.432       .  S
C2734      H2739   1.083       .  S
N2735      H2755   1.046       .  S
N2735      H2756   1.046       .  S
C2737      C2740   1.412       .  A
C2737      C2744   1.412       .  A
N2738      H2753   1.046       .  S
N2738      H2754   1.045       .  S
C2740      C2741   1.408       .  A
C2740      H2745   1.079       .  S
C2741      C2742   1.412       .  A
C2741      N2746   1.438       .  S
C2742      C2743   1.395       .  A
C2743      C2744   1.398       .  A
C2743      H2747   1.085       .  S
C2744      N2748   1.422       .  S
N2748      H2751   1.045       .  S
N2748      H2752   1.042       .  S
C2757      C2758   1.412       .  A
C2757      C2762   1.400       .  A
C2758      C2759   1.401       .  A
C2758      N2763   1.430       .  S
C2759      C2760   1.403       .  A
C2759      H2764   1.083       .  S
C2760      C2765   1.496       .  S
C2760      C2761   1.413       .  A
C2761      C2762   1.403       .  A
C2761      N2766   1.429       .  S
C2762      H2767   1.083       .  S
N2763      H3739   1.044   1_545  S
N2763      H2784   1.046       .  S
C2765      C2768   1.405       .  A
C2765      C2772   1.416       .  A
N2766      H2781   1.045       .  S
N2766      H2782   1.039       .  S
C2768      C2769   1.398       .  A
C2768      H2773   1.079       .  S
C2769      C2770   1.411       .  A
C2770      C2771   1.397       .  A
C2771      C2772   1.404       .  A
C2771      H2775   1.084       .  S
C2772      N2776   1.435       .  S
N2774      H2777   1.043       .  S
N2774      H2778   1.044       .  S
N2776      H2779   1.046       .  S
N2776      H2780   1.043       .  S
H2783      N3719   1.044       .  S
C2785      C2786   1.408       .  A
C2785      C2790   1.401       .  A
C2786      C2787   1.391       .  A
C2786      N2791   1.428       .  S
C2787      C2788   1.389       .  A
C2787      H2792   1.077       .  S
C2788      C2793   1.484       .  S
C2788      C2789   1.415       .  A
C2789      C2790   1.414       .  A
C2789      N2794   1.432       .  S
C2790      H2795   1.083       .  S
N2791      H2811   1.043       .  S
N2791      H2812   1.045       .  S
C2793      C2796   1.399       .  A
C2793      C2800   1.415       .  A
N2794      H2809   1.045       .  S
N2794      H2810   1.036       .  S
C2796      C2797   1.406       .  A
C2796      H2801   1.077       .  S
C2797      C2798   1.408       .  A
C2797      N2802   1.439       .  S
C2798      C2799   1.402       .  A
C2799      C2800   1.405       .  A
C2799      H2803   1.084       .  S
C2800      N2804   1.439       .  S
N2802      H2805   1.043       .  S
N2802      H2806   1.042       .  S
N2804      H2807   1.046       .  S
N2804      H2808   1.041       .  S
C2813      C2814   1.413       .  A
C2813      C2818   1.398       .  A
C2814      C2815   1.397       .  A
C2814      N2819   1.437       .  S
C2815      C2816   1.399       .  A
C2815      H2820   1.083       .  S
C2816      C2821   1.468       .  S
C2816      C2817   1.402       .  A
C2817      C2818   1.397       .  A
C2817      N2822   1.430       .  S
C2818      H2823   1.084       .  S
N2819      H2840   1.045       .  S
C2821      C2824   1.409       .  A
C2821      C2828   1.400       .  A
N2822      H2837   1.045       .  S
N2822      H2838   1.041       .  S
C2824      C2825   1.409       .  A
C2824      H2829   1.082   1_655  S
C2825      C2826   1.403       .  A
C2825      N2830   1.436   1_655  S
C2826      C2827   1.399       .  A
C2827      C2828   1.384       .  A
C2827      H2831   1.083   1_545  S
C2828      N2832   1.431       .  S
N2830      H2833   1.045       .  S
N2830      H2834   1.046   1_455  S
N2832      H2835   1.042   1_545  S
N2832      H2836   1.043       .  S
C2841      C2842   1.404       .  A
C2841      C2846   1.398       .  A
C2842      C2843   1.402       .  A
C2842      N2847   1.430       .  S
C2843      C2844   1.413       .  A
C2843      H2848   1.080       .  S
C2844      C2849   1.515       .  S
C2844      C2845   1.421       .  A
C2845      C2846   1.407       .  A
C2845      N2850   1.429       .  S
C2846      H2851   1.083       .  S
N2847      H2867   1.045       .  S
N2847      H2868   1.043       .  S
C2849      C2852   1.409       .  A
C2849      C2856   1.416       .  A
N2850      H2865   1.046       .  S
N2850      H2866   1.040       .  S
C2852      C2853   1.405       .  A
C2852      H2857   1.080       .  S
C2853      C2854   1.417       .  A
C2853      N2858   1.433       .  S
C2854      C2855   1.400       .  A
C2855      C2856   1.405       .  A
C2855      H2859   1.084       .  S
C2856      N2860   1.423       .  S
N2858      H2861   1.045       .  S
N2858      H2862   1.046       .  S
N2860      H2863   1.045       .  S
N2860      H2864   1.045       .  S
O2869     Ni2875   1.949   1_556  S
O2869      C2890   1.290       .  A
O2870     Ni2893   1.978       .  S
O2870      C2879   1.320       .  A
O2871     Ni2875   1.791       .  S
O2871     Ni2893   1.878       .  S
O2871     Ni2887   1.880   1_554  S
O2871      H2894   0.966   1_554  S
C2872      O2889   1.324       .  A
C2872      O2881   1.298       .  A
C2872      C2995   1.525       .  S
O2873     Ni2892   1.919   1_554  S
O2873      C2879   1.283       .  A
O2874     Ni2892   1.971       .  S
O2874      C2876   1.275       .  A
Ni2875     O2878   2.006       .  S
Ni2875     O2880   1.956       .  S
C2876      O2886   1.278       .  A
C2876      C3004   1.535       .  S
O2877     Ni2893   1.905       .  S
O2877      C2883   1.299       .  A
O2878      C2883   1.317       .  A
C2879      C3114   1.488       .  S
O2880      C2882   1.281       .  A
O2881     Ni2892   1.973       .  S
C2882      O2888   1.309       .  A
C2882      C3130   1.532       .  S
C2883      C3145   1.496       .  S
H2884      O2885   0.967       .  S
O2885     Ni2893   1.884       .  S
O2885     Ni2887   1.806   1_554  S
O2885     Ni2892   1.853   1_554  S
O2886     Ni2887   1.966       .  S
Ni2887     O2891   1.919       .  S
Ni2887     O2889   2.001       .  S
O2888     Ni2893   1.972       .  S
C2890      O2891   1.298       .  A
C2890      C2979   1.483       .  S
O2895     Ni2901   1.878       .  S
O2895      C2916   1.271       .  A
O2896     Ni2919   1.970       .  S
O2896      C2905   1.301       .  A
O2897     Ni2901   1.914       .  S
O2897     Ni2919   1.885       .  S
O2897     Ni2913   1.859       .  S
O2897      H2920   0.968       .  S
C2898      O2915   1.294       .  A
C2898      O2907   1.287       .  A
C2898      C3137   1.497       .  S
O2899     Ni2918   1.938       .  S
O2899      C2905   1.282       .  A
O2900     Ni2918   1.931       .  S
O2900      C2902   1.269       .  A
Ni2901     O2904   1.944       .  S
Ni2901     O2906   1.927       .  S
C2902      O2912   1.297       .  A
C2902      C3121   1.536       .  S
O2903     Ni2919   2.002       .  S
O2903      C2909   1.320       .  A
O2904      C2909   1.289       .  A
C2905      C2988   1.502       .  S
O2906      C2908   1.259       .  A
O2907     Ni2918   1.961       .  S
C2908      O2914   1.268       .  A
C2908      C2963   1.509       .  S
C2909      C2972   1.533       .  S
H2910      O2911   0.967       .  S
O2911     Ni2919   1.937       .  S
O2911     Ni2913   1.896       .  S
O2911     Ni2918   1.887       .  S
O2912     Ni2913   2.003       .  S
Ni2913     O2917   1.983       .  S
Ni2913     O2915   1.940       .  S
O2914     Ni2919   1.958       .  S
C2916      O2917   1.310       .  A
C2916      C3091   1.503       .  S
O2921      C2931   1.283       .  A
O2922     Ni2929   1.929       .  S
O2922      C2932   1.285       .  A
O2923     Ni2929   1.895       .  S
O2923      C2933   1.275       .  A
O2924      C2934   1.273       .  A
O2925      C2934   1.283       .  A
O2926     Ni2930   1.932       .  S
O2926      C2933   1.285       .  A
O2927     Ni2930   1.913       .  S
O2927      C2932   1.280       .  A
O2928      C2931   1.276       .  A
Ni2929    Ni2930   2.390       .  S
C2931      C3713   1.471       .  S
C2932      C3810   1.486       .  S
C2933      C3741   1.471       .  S
C2934      C3782   1.450       .  S
O2935     Ni2943   1.922       .  S
O2935      C2945   1.285       .  A
O2936     Ni2943   1.931       .  S
O2936      C2946   1.283       .  A
O2937     Ni2943   1.915       .  S
O2937      C2947   1.279       .  A
O2938     Ni2943   1.902       .  S
O2938      C2948   1.274       .  A
O2939     Ni2944   1.923       .  S
O2939      C2948   1.282       .  A
O2940     Ni2944   1.938       .  S
O2940      C2947   1.286       .  A
O2941     Ni2944   1.932       .  S
O2941      C2946   1.284       .  A
O2942     Ni2944   1.915       .  S
O2942      C2945   1.280       .  A
Ni2943    Ni2944   2.387       .  S
C2945      C3657   1.489       .  S
C2946      C3601   1.488       .  S
C2947      C3685   1.485       .  S
C2948      C3642   1.464       .  S
O2949      C2959   1.286       .  A
O2950     Ni2957   1.920       .  S
O2950      C2960   1.280       .  A
O2951     Ni2957   1.906       .  S
O2951      C2961   1.280       .  A
O2952      C2962   1.281       .  A
O2953      C2962   1.284       .  A
O2954     Ni2958   1.909       .  S
O2954      C2961   1.280       .  A
O2955     Ni2958   1.909       .  S
O2955      C2960   1.279       .  A
O2956      C2959   1.281       .  A
Ni2957    Ni2958   2.387       .  S
C2959      C3530   1.503       .  S
C2960      C3573   1.467       .  S
C2961      C3489   1.476       .  S
C2962      C3545   1.495       .  S
C2963      C2968   1.400       .  A
C2964      C3025   1.500       .  S
C2964      C2965   1.416       .  A
C2965      C2966   1.393       .  A
C2965      H2970   1.087       .  S
C2966      C3698   1.496       .  S
C2967      C3769   1.459       .  S
C2967      C2968   1.383       .  A
C2968      H2969   1.088       .  S
C2971      C3021   1.526       .  S
C2971      C2976   1.428       .  A
C2972      C2973   1.415       .  A
C2973      C2974   1.399       .  A
C2973      H2978   1.084       .  S
C2974      C3670   1.488       .  S
C2975      C3558   1.505       .  S
C2975      C2976   1.400       .  A
C2976      H2977   1.083       .  S
C2979      C2980   1.436       .  A
C2979      C2984   1.403       .  A
C2980      C3047   1.483       .  S
C2980      C2981   1.413       .  A
C2981      C2982   1.387       .  A
C2981      H2986   1.085       .  S
C2982      C3754   1.478       .  S
C2982      C2983   1.401       .  A
C2983      C3502   1.458       .  S
C2983      C2984   1.381       .  A
C2984      H2985   1.086       .  S
C2987      C3024   1.515       .  S
C2987      C2988   1.463       .  A
C2987      C2992   1.415       .  A
C2988      C2989   1.413       .  A
C2989      C2990   1.392       .  A
C2989      H2994   1.086       .  S
C2990      C3586   1.485       .  S
C2990      C2991   1.405       .  A
C2991      C3797   1.485       .  S
C2991      C2992   1.396       .  A
C2992      H2993   1.085       .  S
C2995      C3000   1.402       .  A
C2996      C3050   1.530       .  S
C2996      C2997   1.413       .  A
C2997      C2998   1.398       .  A
C2997      H3002   1.086       .  S
C2998      C3517   1.492       .  S
C2999      C3629   1.484       .  S
C2999      C3000   1.391       .  A
C3000      H3001   1.085       .  S
C3003      C3051   1.541       .  S
C3003      C3008   1.433       .  A
C3004      C3005   1.416       .  A
C3005      C3006   1.393       .  A
C3005      H3010   1.081       .  S
C3006      C3726   1.484       .  S
C3007      C3614   1.512       .  S
C3007      C3008   1.401       .  A
C3008      H3009   1.083       .  S
O3011     Ni3017   1.947       .  S
O3011      C3032   1.282       .  A
O3012     Ni3035   2.020       .  S
O3012      C3021   1.320       .  A
O3013     Ni3017   1.886       .  S
O3013     Ni3035   1.904       .  S
O3013     Ni3029   1.929       .  S
O3013      H3036   0.963       .  S
C3014      O3031   1.316       .  A
C3014      O3023   1.288       .  A
C3014      C3092   1.527       .  S
O3015     Ni3034   1.892       .  S
O3015      C3021   1.274       .  A
O3016     Ni3034   1.931       .  S
O3016      C3018   1.263       .  A
Ni3017     O3020   1.961       .  S
Ni3017     O3022   1.924       .  S
C3018      O3028   1.265       .  A
C3018      C3138   1.508       .  S
O3019     Ni3035   1.959       .  S
O3019      C3025   1.300       .  A
O3020      C3025   1.289       .  A
O3022      C3024   1.267       .  A
O3023     Ni3034   1.942       .  S
C3024      O3030   1.293       .  A
H3026      O3027   0.968       .  S
O3027     Ni3035   1.865       .  S
O3027     Ni3029   1.895       .  S
O3027     Ni3034   1.911       .  S
O3028     Ni3029   1.958       .  S
Ni3029     O3033   1.974       .  S
Ni3029     O3031   1.991       .  S
O3030     Ni3035   1.983       .  S
C3032      O3033   1.300       .  A
C3032      C3122   1.518       .  S
O3037     Ni3043   1.923   1_554  S
O3037      C3058   1.286       .  A
O3038     Ni3061   1.901       .  S
O3038      C3047   1.290       .  A
O3039     Ni3043   1.851   1_554  S
O3039     Ni3061   1.816   1_554  S
O3039     Ni3055   1.896       .  S
O3039      H3062   0.968       .  S
C3040      O3057   1.306       .  A
C3040      O3049   1.319       .  A
C3040      C3113   1.499       .  S
O3041     Ni3060   1.960   1_556  S
O3041      C3047   1.291       .  A
O3042     Ni3060   1.969       .  S
O3042      C3044   1.285       .  A
Ni3043     O3046   1.992       .  S
Ni3043     O3048   1.957       .  S
C3044      O3054   1.305       .  A
C3044      C3129   1.536       .  S
O3045     Ni3061   1.976       .  S
O3045      C3051   1.314       .  A
O3046      C3051   1.300       .  A
O3048      C3050   1.277       .  A
O3049     Ni3060   2.015       .  S
C3050      O3056   1.276       .  A
H3052      O3053   0.960   1_556  S
O3053     Ni3061   1.868   1_554  S
O3053     Ni3055   1.884       .  S
O3053     Ni3060   1.789       .  S
O3054     Ni3055   1.967       .  S
Ni3055     O3059   1.993       .  S
Ni3055     O3057   1.917       .  S
O3056     Ni3061   1.979       .  S
C3058      O3059   1.320       .  A
C3058      C3146   1.504       .  S
O3063      C3073   1.279       .  A
O3064     Ni3071   1.932       .  S
O3064      C3074   1.283       .  A
O3065     Ni3071   1.913       .  S
O3065      C3075   1.282       .  A
O3066      C3076   1.282       .  A
O3067      C3076   1.279       .  A
O3068     Ni3072   1.917       .  S
O3068      C3075   1.282       .  A
O3069     Ni3072   1.942       .  S
O3069      C3074   1.287       .  A
O3070      C3073   1.282       .  A
Ni3071    Ni3072   2.387       .  S
C3073      C3405   1.467       .  S
C3074      C3433   1.504       .  S
C3075      C3474   1.496       .  S
C3076      C3390   1.472       .  S
O3077     Ni3085   1.896       .  S
O3077      C3087   1.279       .  A
O3078     Ni3085   1.914       .  S
O3078      C3088   1.282       .  A
O3079     Ni3085   1.896       .  S
O3079      C3089   1.277       .  A
O3080     Ni3085   1.872       .  S
O3080      C3090   1.272       .  A
O3081     Ni3086   1.898       .  S
O3081      C3090   1.277       .  A
O3082     Ni3086   1.917       .  S
O3082      C3089   1.282       .  A
O3083     Ni3086   1.913       .  S
O3083      C3088   1.281       .  A
O3084     Ni3086   1.902       .  S
O3084      C3087   1.279       .  A
Ni3085    Ni3086   2.393       .  S
C3087      C3321   1.462       .  S
C3088      C3293   1.485       .  S
C3089      C3278   1.471       .  S
C3090      C3362   1.437       .  S
C3091      C3096   1.414       .  A
C3092      C3093   1.410       .  A
C3093      C3094   1.396       .  A
C3093      H3098   1.084       .  S
C3094      C3334   1.461       .  S
C3095      C3377   1.497       .  S
C3095      C3096   1.389       .  A
C3096      H3097   1.080       .  S
O3099      C3109   1.275       .  A
O3100     Ni3107   1.905       .  S
O3100      C3110   1.277       .  A
O3101     Ni3107   1.935       .  S
O3101      C3111   1.286       .  A
O3102      C3112   1.283       .  A
O3103      C3112   1.276       .  A
O3104     Ni3108   1.904       .  S
O3104      C3111   1.278       .  A
O3105     Ni3108   1.930       .  S
O3105      C3110   1.285       .  A
O3106      C3109   1.282       .  A
Ni3107    Ni3108   2.390       .  S
C3109      C3153   1.454       .  S
C3110      C3237   1.477       .  S
C3111      C3209   1.480       .  S
C3112      C3181   1.476       .  S
C3113      C3118   1.398       .  A
C3114      C3115   1.405       .  A
C3115      C3116   1.383       .  A
C3115      H3120   1.085       .  S
C3116      C3418   1.480       .  S
C3117      C3349   1.451       .  S
C3117      C3118   1.384       .  A
C3118      H3119   1.087       .  S
C3121      C3122   1.463       .  A
C3121      C3126   1.417       .  A
C3122      C3123   1.421       .  A
C3123      C3124   1.405       .  A
C3123      H3128   1.085       .  S
C3124      C3446   1.509       .  S
C3124      C3125   1.416       .  A
C3125      C3222   1.492       .  S
C3125      C3126   1.408       .  A
C3126      H3127   1.084       .  S
C3129      C3130   1.482       .  A
C3129      C3134   1.424       .  A
C3130      C3131   1.417       .  A
C3131      C3132   1.398       .  A
C3131      H3136   1.085       .  S
C3132      C3250   1.493       .  S
C3132      C3133   1.408       .  A
C3133      C3461   1.496       .  S
C3133      C3134   1.403       .  A
C3134      H3135   1.085       .  S
C3137      C3142   1.407       .  A
C3138      C3139   1.398       .  A
C3139      C3140   1.380       .  A
C3139      H3144   1.088       .  S
C3140      C3166   1.454       .  S
C3141      C3265   1.469       .  S
C3141      C3142   1.385       .  A
C3142      H3143   1.086       .  S
C3145      C3150   1.406       .  A
C3146      C3147   1.415       .  A
C3147      C3148   1.400       .  A
C3147      H3152   1.084       .  S
C3148      C3194   1.486       .  S
C3149      C3306   1.487       .  S
C3149      C3150   1.388       .  A
C3150      H3151   1.087       .  S
C3153      C3154   1.402       .  A
C3153      C3158   1.399       .  A
C3154      C3155   1.404       .  A
C3154      N3159   1.437       .  S
C3155      C3156   1.405       .  A
C3155      H3160   1.078       .  S
C3156      C3161   1.463       .  S
C3156      C3157   1.401       .  A
C3157      C3158   1.392       .  A
C3157      N3162   1.437   1_565  S
C3158      H3163   1.083   1_565  S
N3159      H3179   1.046       .  S
N3159      H3180   1.045       .  S
C3161      C3164   1.400       .  A
C3161      C3168   1.410       .  A
N3162      H3177   1.044       .  S
N3162      H3178   1.041       .  S
C3164      C3165   1.393       .  A
C3164      H3169   1.084       .  S
C3165      C3166   1.410       .  A
C3165      N3170   1.433       .  S
C3166      C3167   1.388       .  A
C3167      C3168   1.385       .  A
C3167      H3171   1.083       .  S
C3168      N3172   1.426       .  S
N3170      H3173   1.045       .  S
N3170      H3174   1.045       .  S
N3172      H3175   1.045       .  S
N3172      H3176   1.046   1_565  S
C3181      C3182   1.404       .  A
C3181      C3186   1.395       .  A
C3182      C3183   1.412       .  A
C3182      N3187   1.431       .  S
C3183      C3184   1.404       .  A
C3183      H3188   1.079       .  S
C3184      C3189   1.493       .  S
C3184      C3185   1.408       .  A
C3185      C3186   1.390       .  A
C3185      N3190   1.420       .  S
C3186      H3191   1.084       .  S
N3187      H3207   1.046       .  S
N3187      H3208   1.036       .  S
C3189      C3192   1.403       .  A
C3189      C3196   1.415       .  A
N3190      H3205   1.044       .  S
N3190      H3206   1.042       .  S
C3192      C3193   1.401       .  A
C3192      H3197   1.078       .  S
C3193      C3194   1.412       .  A
C3194      C3195   1.401       .  A
C3195      C3196   1.401       .  A
C3195      H3199   1.084       .  S
C3196      N3200   1.436       .  S
N3198      H3201   1.045       .  S
N3198      H3202   1.045       .  S
N3200      H3203   1.042       .  S
N3200      H3204   1.045       .  S
C3209      C3210   1.401       .  A
C3209      C3214   1.403       .  A
C3210      C3211   1.413       .  A
C3210      N3215   1.435       .  S
C3211      C3212   1.416       .  A
C3211      H3216   1.081       .  S
C3212      C3217   1.509       .  S
C3212      C3213   1.413       .  A
C3213      C3214   1.401       .  A
C3213      N3218   1.431       .  S
C3214      H3219   1.084       .  S
N3215      H3235   1.046       .  S
N3215      H3236   1.043       .  S
C3217      C3220   1.410       .  A
C3217      C3224   1.412       .  A
N3218      H3233   1.043       .  S
N3218      H3234   1.040       .  S
C3220      C3221   1.403       .  A
C3220      H3225   1.079       .  S
C3221      C3222   1.414       .  A
C3221      N3226   1.438       .  S
C3222      C3223   1.398       .  A
C3223      C3224   1.408       .  A
C3223      H3227   1.081       .  S
C3224      N3228   1.427       .  S
N3226      H3229   1.044       .  S
N3226      H3230   1.045       .  S
N3228      H3231   1.046       .  S
N3228      H3232   1.042       .  S
C3237      C3238   1.398       .  A
C3237      C3242   1.406       .  A
C3238      C3239   1.413       .  A
C3238      N3243   1.432       .  S
C3239      C3240   1.407       .  A
C3239      H3244   1.081       .  S
C3240      C3245   1.495       .  S
C3240      C3241   1.408       .  A
C3241      C3242   1.405       .  A
C3241      N3246   1.432       .  S
C3242      H3247   1.084       .  S
N3243      H3263   1.044       .  S
N3243      H3264   1.039       .  S
C3245      C3248   1.404       .  A
C3245      C3252   1.422       .  A
N3246      H3261   1.042       .  S
N3246      H3262   1.045       .  S
C3248      C3249   1.403       .  A
C3248      H3253   1.081       .  S
C3249      C3250   1.416       .  A
C3249      N3254   1.433       .  S
C3250      C3251   1.397       .  A
C3251      C3252   1.402       .  A
C3251      H3255   1.084       .  S
C3252      N3256   1.431       .  S
N3254      H3257   1.045       .  S
N3254      H3258   1.044       .  S
N3256      H3259   1.045       .  S
N3256      H3260   1.039       .  S
C3265      C3266   1.407       .  A
C3265      C3270   1.394       .  A
C3266      C3267   1.404       .  A
C3266      N3271   1.439       .  S
C3267      C3268   1.406       .  A
C3267      H3272   1.083       .  S
C3268      C3273   1.481       .  S
C3268      C3269   1.405       .  A
C3269      C3270   1.393       .  A
C3269      N3274   1.425       .  S
N3271      H3291   1.044       .  S
N3271      H3292   1.045       .  S
C3273      C3276   1.401       .  A
C3273      C3280   1.411       .  A
N3274      H3290   1.035       .  S
C3276      C3277   1.394       .  A
C3276      H3281   1.082       .  S
C3277      C3278   1.408       .  A
C3277      N3282   1.431       .  S
C3278      C3279   1.403       .  A
C3279      C3280   1.402       .  A
C3279      H3283   1.084       .  S
C3280      N3284   1.432       .  S
N3282      H3285   1.045   1_655  S
N3282      H3286   1.044       .  S
N3284      H3287   1.043       .  S
N3284      H3288   1.045       .  S
C3293      C3294   1.404       .  A
C3293      C3298   1.407       .  A
C3294      C3295   1.402       .  A
C3294      N3299   1.430       .  S
C3295      C3296   1.405       .  A
C3295      H3300   1.076       .  S
C3296      C3301   1.512       .  S
C3296      C3297   1.421       .  A
C3297      C3298   1.409       .  A
C3297      N3302   1.432       .  S
C3298      H3303   1.084       .  S
N3299      H3319   1.039       .  S
N3299      H3320   1.045       .  S
C3301      C3304   1.409       .  A
C3301      C3308   1.428       .  A
N3302      H3317   1.045       .  S
N3302      H3318   1.045       .  S
C3304      C3305   1.405       .  A
C3304      H3309   1.079       .  S
C3305      C3306   1.414       .  A
C3305      N3310   1.432       .  S
C3306      C3307   1.391       .  A
C3307      C3308   1.394       .  A
C3307      H3311   1.085       .  S
C3308      N3312   1.425       .  S
N3310      H3313   1.045       .  S
N3310      H3314   1.045       .  S
N3312      H3315   1.038       .  S
N3312      H3316   1.036       .  S
C3321      C3322   1.404       .  A
C3321      C3326   1.408       .  A
C3322      C3323   1.388       .  A
C3322      N3327   1.433   1_565  S
C3323      C3324   1.397       .  A
C3323      H3328   1.078   1_565  S
C3324      C3329   1.461       .  S
C3324      C3325   1.405       .  A
C3325      C3326   1.402       .  A
C3325      N3330   1.438       .  S
C3326      H3331   1.084       .  S
N3327      H3347   1.044       .  S
N3327      H3348   1.044       .  S
C3329      C3332   1.389       .  A
C3329      C3336   1.408       .  A
N3330      H3345   1.046       .  S
N3330      H3346   1.046       .  S
C3332      C3333   1.391       .  A
C3332      H3337   1.073       .  S
C3333      C3334   1.408       .  A
C3334      C3335   1.398       .  A
C3335      C3336   1.396       .  A
C3335      H3339   1.084       .  S
C3336      N3340   1.433       .  S
N3338      H3341   1.041       .  S
N3338      H3342   1.044       .  S
N3340      H3343   1.045       .  S
N3340      H3344   1.042       .  S
C3349      C3350   1.400       .  A
C3349      C3354   1.392       .  A
C3350      C3351   1.396       .  A
C3350      N3355   1.437       .  S
C3351      C3352   1.401       .  A
C3351      H3356   1.079       .  S
C3352      C3357   1.464       .  S
C3352      C3353   1.410       .  A
C3353      C3354   1.389       .  A
C3353      N3358   1.431       .  S
C3354      H3359   1.084       .  S
N3355      H3375   1.046       .  S
N3355      H3376   1.043       .  S
C3357      C3360   1.387       .  A
C3357      C3364   1.405       .  A
N3358      H3373   1.045       .  S
N3358      H3374   1.045       .  S
C3360      C3361   1.377       .  A
C3360      H3365   1.062       .  S
C3361      C3362   1.406       .  A
C3361      N3366   1.436       .  S
C3362      C3363   1.393       .  A
C3363      C3364   1.399       .  A
C3363      H3367   1.084       .  S
C3364      N3368   1.419   1_565  S
N3366      H3369   1.041       .  S
N3366      H3370   1.045       .  S
N3368      H3371   1.038       .  S
N3368      H3372   1.045       .  S
C3377      C3378   1.417       .  A
C3377      C3382   1.407       .  A
C3378      C3379   1.398       .  A
C3378      N3383   1.431       .  S
C3379      C3380   1.397       .  A
C3379      H3384   1.080       .  S
C3380      C3385   1.480       .  S
C3380      C3381   1.407       .  A
C3381      C3382   1.407       .  A
C3381      N3386   1.437       .  S
C3382      H3387   1.082       .  S
N3383      H3403   1.043       .  S
N3383      H3404   1.044       .  S
C3385      C3388   1.397       .  A
C3385      C3392   1.409       .  A
N3386      H3401   1.046       .  S
N3386      H3402   1.045       .  S
C3388      C3389   1.401       .  A
C3388      H3393   1.080       .  S
C3389      C3390   1.412       .  A
C3389      N3394   1.438   1_655  S
C3390      C3391   1.404       .  A
C3391      C3392   1.406       .  A
C3391      H3395   1.084       .  S
C3392      N3396   1.432       .  S
N3394      H3397   1.045       .  S
N3394      H3398   1.046       .  S
C3405      C3406   1.403       .  A
C3405      C3410   1.401       .  A
C3406      C3407   1.408       .  A
C3406      N3411   1.436       .  S
C3407      C3408   1.409       .  A
C3407      H3412   1.078       .  S
C3408      C3413   1.490       .  S
C3408      C3409   1.405       .  A
C3409      C3410   1.397       .  A
C3409      N3414   1.432       .  S
C3410      H3415   1.078   1_655  S
N3411      H3431   1.045       .  S
N3411      H3432   1.045       .  S
C3413      C3416   1.404       .  A
C3413      C3420   1.416       .  A
N3414      H3429   1.045   1_655  S
N3414      H3430   1.044   1_655  S
C3416      C3417   1.398       .  A
C3416      H3421   1.078       .  S
C3417      C3418   1.401       .  A
C3417      N3422   1.429       .  S
C3418      C3419   1.400       .  A
C3419      C3420   1.401       .  A
C3420      N3424   1.433       .  S
N3422      H3425   1.043       .  S
N3422      H3426   1.043       .  S
N3424      H3428   1.046       .  S
C3433      C3434   1.418       .  A
C3433      C3438   1.407       .  A
C3434      C3435   1.413       .  A
C3434      N3439   1.439       .  S
C3435      C3436   1.408       .  A
C3435      H3440   1.082       .  S
C3436      C3441   1.521       .  S
C3436      C3437   1.418       .  A
C3437      C3438   1.416       .  A
C3437      N3442   1.429       .  S
C3438      H3443   1.084       .  S
N3439      H3459   1.039       .  S
N3439      H3460   1.044       .  S
C3441      C3444   1.409       .  A
C3441      C3448   1.424       .  A
N3442      H3457   1.045       .  S
N3442      H3458   1.035       .  S
C3444      C3445   1.407       .  A
C3444      H3449   1.079       .  S
C3445      C3446   1.404       .  A
C3445      N3450   1.429       .  S
C3446      C3447   1.405       .  A
C3447      C3448   1.421       .  A
C3447      H3451   1.083       .  S
C3448      N3452   1.437       .  S
N3450      H3453   1.044       .  S
N3450      H3454   1.042       .  S
N3452      H3455   1.045       .  S
N3452      H3456   1.046       .  S
C3461      C3462   1.412       .  A
C3461      C3466   1.389       .  A
C3462      C3463   1.421       .  A
C3462      N3467   1.435       .  S
C3463      C3464   1.414       .  A
C3463      H3468   1.081       .  S
C3464      C3469   1.518       .  S
C3464      C3465   1.416       .  A
C3465      C3466   1.395       .  A
C3465      N3470   1.420       .  S
C3466      H3471   1.083       .  S
N3467      H3487   1.046       .  S
N3467      H3488   1.046       .  S
C3469      C3472   1.407       .  A
C3469      C3476   1.419       .  A
N3470      H3485   1.046       .  S
N3470      H3486   1.045       .  S
C3472      C3473   1.408       .  A
C3472      H3477   1.079       .  S
C3473      C3474   1.411       .  A
C3473      N3478   1.433       .  S
C3474      C3475   1.404       .  A
C3475      C3476   1.408       .  A
C3475      H3479   1.084       .  S
C3476      N3480   1.426       .  S
N3478      H3481   1.039       .  S
N3478      H3482   1.044       .  S
N3480      H3483   1.044       .  S
N3480      H3484   1.044       .  S
C3489      C3490   1.410       .  A
C3489      C3494   1.400       .  A
C3490      C3491   1.393       .  A
C3490      N3495   1.430       .  S
C3491      C3492   1.399       .  A
C3491      H3496   1.074       .  S
C3492      C3497   1.495       .  S
C3492      C3493   1.410       .  A
C3493      C3494   1.410       .  A
C3493      N3498   1.428       .  S
C3494      H3499   1.084       .  S
N3495      H3515   1.043       .  S
N3495      H3516   1.045       .  S
C3497      C3500   1.411       .  A
C3497      C3504   1.416       .  A
N3498      H3513   1.034       .  S
N3498      H3514   1.044       .  S
C3500      C3501   1.391       .  A
C3500      H3505   1.078       .  S
C3501      C3502   1.396       .  A
C3501      N3506   1.431       .  S
C3502      C3503   1.390       .  A
C3503      C3504   1.394       .  A
C3503      H3507   1.084       .  S
C3504      N3508   1.428       .  S
N3506      H3509   1.041       .  S
N3506      H3510   1.042       .  S
N3508      H3511   1.045       .  S
N3508      H3512   1.045       .  S
C3517      C3518   1.397       .  A
C3517      C3522   1.403       .  A
C3518      C3519   1.403       .  A
C3518      N3523   1.438       .  S
C3519      C3520   1.414       .  A
C3519      H3524   1.072       .  S
C3520      C3525   1.524       .  S
C3520      C3521   1.429       .  A
C3521      C3522   1.413       .  A
C3521      N3526   1.436       .  S
N3523      H3543   1.045       .  S
N3523      H3544   1.041       .  S
C3525      C3528   1.411       .  A
C3525      C3532   1.417       .  A
N3526      H3542   1.045   1_565  S
C3528      C3529   1.414       .  A
C3528      H3533   1.072       .  S
C3529      C3530   1.414       .  A
C3529      N3534   1.436       .  S
C3530      C3531   1.406       .  A
C3531      C3532   1.404       .  A
C3531      H3535   1.083       .  S
C3532      N3536   1.432       .  S
N3534      H3537   1.045   1_565  S
N3534      H3538   1.038   1_565  S
N3536      H3539   1.041       .  S
N3536      H3540   1.046       .  S
C3545      C3546   1.416       .  A
C3545      C3550   1.399       .  A
C3546      C3547   1.412       .  A
C3546      N3551   1.431       .  S
C3547      C3548   1.407       .  A
C3547      H3552   1.075       .  S
C3548      C3553   1.511       .  S
C3548      C3549   1.412       .  A
C3549      C3550   1.400       .  A
C3549      N3554   1.421       .  S
C3550      H3555   1.084       .  S
N3551      H3571   1.045   1_565  S
N3551      H3572   1.046       .  S
C3553      C3556   1.407       .  A
C3553      C3560   1.416       .  A
N3554      H3569   1.044       .  S
N3554      H3570   1.045       .  S
C3556      C3557   1.405       .  A
C3556      H3561   1.077       .  S
C3557      C3558   1.412       .  A
C3557      N3562   1.431       .  S
C3558      C3559   1.407       .  A
C3559      C3560   1.414       .  A
C3559      H3563   1.084       .  S
C3560      N3564   1.432       .  S
N3562      H3565   1.042       .  S
N3562      H3566   1.045       .  S
N3564      H3567   1.045       .  S
N3564      H3568   1.045       .  S
C3573      C3574   1.401       .  A
C3573      C3578   1.397       .  A
C3574      C3575   1.411       .  A
C3574      N3579   1.437       .  S
C3575      C3576   1.412       .  A
C3575      H3580   1.082       .  S
C3576      C3581   1.487       .  S
C3576      C3577   1.415       .  A
C3577      C3578   1.394       .  A
C3577      N3582   1.438       .  S
C3578      H3583   1.079       .  S
N3579      H3599   1.045       .  S
N3579      H3600   1.045       .  S
C3581      C3584   1.403       .  A
C3581      C3588   1.404       .  A
N3582      H3597   1.044       .  S
N3582      H3598   1.040       .  S
C3584      C3585   1.401       .  A
C3584      H3589   1.083       .  S
C3585      C3586   1.417       .  A
C3585      N3590   1.438       .  S
C3586      C3587   1.398       .  A
C3587      C3588   1.403       .  A
C3587      H3591   1.084       .  S
C3588      N3592   1.424       .  S
N3590      H3593   1.044       .  S
N3590      H3594   1.044       .  S
N3592      H3595   1.043       .  S
N3592      H3596   1.040       .  S
C3601      C3602   1.410       .  A
C3601      C3606   1.400       .  A
C3602      C3603   1.419       .  A
C3602      N3607   1.436       .  S
C3603      C3604   1.412       .  A
C3603      H3608   1.082       .  S
C3604      C3609   1.502       .  S
C3604      C3605   1.407       .  A
C3605      C3606   1.406       .  A
C3605      N3610   1.435       .  S
C3606      H3611   1.081       .  S
N3607      H3627   1.045       .  S
N3607      H3628   1.045       .  S
C3609      C3612   1.405       .  A
C3609      C3616   1.415       .  A
N3610      H3625   1.044       .  S
N3610      H3626   1.040       .  S
C3612      C3613   1.410       .  A
C3612      H3617   1.084       .  S
C3613      C3614   1.422       .  A
C3614      C3615   1.407       .  A
C3615      C3616   1.413       .  A
C3615      H3619   1.080       .  S
C3616      N3620   1.437       .  S
N3618      H3621   1.043   1_455  S
N3618      H3622   1.045       .  S
N3620      H3623   1.040       .  S
N3620      H3624   1.042       .  S
C3629      C3630   1.411       .  A
C3629      C3634   1.399       .  A
C3630      C3631   1.395       .  A
C3630      N3635   1.431       .  S
C3631      C3632   1.402       .  A
C3631      H3636   1.081       .  S
C3632      C3637   1.474       .  S
C3632      C3633   1.405       .  A
C3633      C3634   1.400       .  A
C3633      N3638   1.437       .  S
C3634      H3639   1.075       .  S
N3635      H3655   1.045       .  S
N3635      H3656   1.040       .  S
C3637      C3640   1.403       .  A
C3637      C3644   1.410       .  A
N3638      H3653   1.045       .  S
N3638      H3654   1.045       .  S
C3640      C3641   1.409       .  A
C3640      H3645   1.080       .  S
C3641      C3642   1.405       .  A
C3641      N3646   1.434       .  S
C3642      C3643   1.397       .  A
C3643      C3644   1.398       .  A
C3643      H3647   1.079       .  S
C3644      N3648   1.439       .  S
N3646      H3649   1.042       .  S
N3646      H3650   1.046       .  S
N3648      H3651   1.045       .  S
N3648      H3652   1.042       .  S
C3657      C3658   1.415       .  A
C3657      C3662   1.402       .  A
C3658      C3659   1.408       .  A
C3658      N3663   1.429       .  S
C3659      C3660   1.401       .  A
C3659      H3664   1.083       .  S
C3660      C3665   1.488       .  S
C3660      C3661   1.413       .  A
C3661      C3662   1.398       .  A
C3661      N3666   1.431       .  S
C3662      H3667   1.084       .  S
N3663      H3683   1.041       .  S
N3663      H3684   1.046       .  S
C3665      C3668   1.398       .  A
C3665      C3672   1.416       .  A
N3666      H3681   1.046       .  S
N3666      H3682   1.042       .  S
C3668      C3669   1.404       .  A
C3668      H3673   1.076       .  S
C3669      C3670   1.405       .  A
C3669      N3674   1.430       .  S
C3670      C3671   1.401       .  A
C3671      C3672   1.406       .  A
C3671      H3675   1.083       .  S
C3672      N3676   1.436       .  S
N3674      H3677   1.044       .  S
N3674      H3678   1.039       .  S
N3676      H3679   1.045       .  S
N3676      H3680   1.040       .  S
C3685      C3686   1.411       .  A
C3685      C3690   1.398       .  A
C3686      C3687   1.408       .  A
C3686      N3691   1.428       .  S
C3687      C3688   1.402       .  A
C3687      H3692   1.080       .  S
C3688      C3693   1.507       .  S
C3688      C3689   1.414       .  A
C3689      C3690   1.410       .  A
C3689      N3694   1.424       .  S
C3690      H3695   1.084       .  S
N3691      H3711   1.043       .  S
N3691      H3712   1.042       .  S
C3693      C3696   1.411       .  A
C3693      C3700   1.410       .  A
N3694      H3709   1.044       .  S
N3694      H3710   1.045       .  S
C3696      C3697   1.415       .  A
C3696      H3701   1.081       .  S
C3697      C3698   1.421       .  A
C3697      N3702   1.439       .  S
C3698      C3699   1.395       .  A
C3699      C3700   1.398       .  A
C3699      H3703   1.085       .  S
C3700      N3704   1.422       .  S
N3704      H3707   1.046       .  S
N3704      H3708   1.046       .  S
C3713      C3714   1.405       .  A
C3713      C3718   1.390       .  A
C3714      C3715   1.402       .  A
C3714      N3719   1.431       .  S
C3715      C3716   1.412       .  A
C3715      H3720   1.082       .  S
C3716      C3721   1.513       .  S
C3716      C3717   1.424       .  A
C3717      C3718   1.399       .  A
C3717      N3722   1.423       .  S
C3718      H3723   1.085       .  S
N3719      H3740   1.046       .  S
C3721      C3724   1.407       .  A
C3721      C3728   1.425       .  A
N3722      H3737   1.046       .  S
N3722      H3738   1.042       .  S
C3724      C3725   1.397       .  A
C3724      H3729   1.068       .  S
C3725      C3726   1.403       .  A
C3726      C3727   1.396       .  A
C3727      C3728   1.408       .  A
C3727      H3731   1.083       .  S
C3728      N3732   1.435       .  S
N3730      H3733   1.043       .  S
N3730      H3734   1.045       .  S
N3732      H3735   1.046       .  S
N3732      H3736   1.042       .  S
C3741      C3742   1.409       .  A
C3741      C3746   1.398       .  A
C3742      C3743   1.391       .  A
C3742      N3747   1.428       .  S
C3743      C3744   1.389       .  A
C3743      H3748   1.078       .  S
C3744      C3749   1.483       .  S
C3744      C3745   1.415       .  A
C3745      C3746   1.411       .  A
C3745      N3750   1.429       .  S
C3746      H3751   1.083       .  S
N3747      H3767   1.043   1_565  S
N3747      H3768   1.045       .  S
C3749      C3752   1.398       .  A
C3749      C3756   1.414       .  A
N3750      H3765   1.045       .  S
N3750      H3766   1.035       .  S
C3752      C3753   1.404       .  A
C3752      H3757   1.076       .  S
C3753      C3754   1.407       .  A
C3753      N3758   1.439       .  S
C3754      C3755   1.400       .  A
C3755      C3756   1.404       .  A
C3755      H3759   1.084       .  S
C3756      N3760   1.438       .  S
N3758      H3761   1.043       .  S
N3758      H3762   1.043       .  S
N3760      H3763   1.046       .  S
N3760      H3764   1.040       .  S
C3769      C3770   1.405       .  A
C3769      C3774   1.402       .  A
C3770      C3771   1.386       .  A
C3770      N3775   1.437       .  S
C3771      C3772   1.400       .  A
C3771      H3776   1.082       .  S
C3772      C3777   1.463       .  S
C3772      C3773   1.405       .  A
C3773      C3774   1.401       .  A
C3773      N3778   1.436       .  S
C3774      H3779   1.084       .  S
N3775      H3796   1.044       .  S
C3777      C3780   1.409       .  A
C3777      C3784   1.399       .  A
N3778      H3793   1.044       .  S
N3778      H3794   1.045       .  S
C3780      C3781   1.410       .  A
C3780      H3785   1.081       .  S
C3781      C3782   1.403       .  A
C3781      N3786   1.435       .  S
C3782      C3783   1.394       .  A
C3783      C3784   1.377       .  A
C3783      H3787   1.076       .  S
C3784      N3788   1.432       .  S
N3786      H3789   1.046   1_655  S
N3786      H3790   1.045       .  S
N3788      H3791   1.040       .  S
N3788      H3792   1.045       .  S
C3797      C3798   1.411       .  A
C3797      C3802   1.397       .  A
C3798      C3799   1.398       .  A
C3798      N3803   1.433       .  S
C3799      C3800   1.406       .  A
C3799      H3804   1.081       .  S
C3800      C3805   1.502       .  S
C3800      C3801   1.416       .  A
C3801      C3802   1.405       .  A
C3801      N3806   1.428       .  S
C3802      H3807   1.083       .  S
N3803      H3823   1.044       .  S
N3803      H3824   1.044       .  S
C3805      C3808   1.405       .  A
C3805      C3812   1.410       .  A
N3806      H3821   1.045       .  S
N3806      H3822   1.045       .  S
C3808      C3809   1.408       .  A
C3808      H3813   1.083       .  S
C3809      C3810   1.417       .  A
C3809      N3814   1.433       .  S
C3810      C3811   1.398       .  A
C3811      C3812   1.404       .  A
C3811      H3815   1.084       .  S
C3812      N3816   1.424       .  S
N3814      H3817   1.045       .  S
N3814      H3818   1.046       .  S
N3816      H3819   1.046       .  S
N3816      H3820   1.036       .  S
