geometry optimzed in LAMMPS
_audit_creation_date              2020-11-30 
_audit_creation_method            'lammps2cif' 
_symmetry_space_group_name_H-M    'P1' 
_symmetry_Int_Tables_number       1 
_symmetry_cell_setting            triclinic 
loop_ 
_symmetry_equiv_pos_as_xyz 
  x,y,z 
_cell_length_a                    28.38246067 
_cell_length_b                    29.15682349528216 
_cell_length_c                    59.63743084210253 
_cell_angle_alpha                 88.74912123551842 
_cell_angle_beta                  91.65758788360584 
_cell_angle_gamma                 124.72453445713941 
loop_ 
_atom_site_label 
_atom_site_type_symbol 
_atom_site_fract_x 
_atom_site_fract_y 
_atom_site_fract_z 
_atom_site_charge 
O1          O  0.20407901  0.16811782  0.01423289    -0.80900
O2          O  0.37224857  0.16881305  0.95472000    -0.65600
O3          O  0.26246268  0.12622775  0.99989194    -1.12200
C4          C  0.43266260  0.21669600  0.04098612     1.06000
O5          O  0.44742552  0.18688989  0.97725313    -0.78800
O6          O  0.36191141  0.08460450  0.02642798    -0.66400
Ni7        Ni  0.20028067  0.12187449  0.98973512     1.34900
C8          C  0.32098102  0.07443729  0.03866265     0.84700
O9          O  0.27801505  0.07073506  0.97252547    -0.79300
O10         O  0.19840355  0.07174643  0.96655245    -0.89600
C11         C  0.42601719  0.18867613  0.95797626     0.84300
O12         O  0.23941870  0.18714158  0.96987641    -0.67800
O13         O  0.44846402  0.19534878  0.02644284    -0.87100
C14         C  0.29251256  0.22542873  0.96678248     0.85100
C15         C  0.22803163  0.05044195  0.96338100     1.06700
H16         H  0.39251747  0.20810087  0.99771894     0.38500
O17         O  0.36385235  0.16867354  0.99987125    -1.09700
O18         O  0.29926045  0.10239142  0.03726406    -0.66400
Ni19       Ni  0.31888193  0.16899228  0.02104652     1.26300
O20         O  0.33149560  0.22112789  0.97512354    -0.66600
O21         O  0.38366556  0.21041197  0.04066631    -0.78900
C22         C  0.22673469  0.17745619  0.03418838     0.84500
O23         O  0.26805044  0.17293361  0.03984761    -0.66100
Ni24       Ni  0.40505952  0.13836638  0.00282664     1.27400
Ni25       Ni  0.31206815  0.14721246  0.97575698     1.26100
H26         H  0.24662688  0.08830579  0.00463015     0.39100
O27         O  0.32482112  0.05338004  0.47832420    -0.80900
O28         O  0.31953992  0.21992463  0.53864428    -0.65600
O29         O  0.33383016  0.13171024  0.49975638    -1.12200
C30         C  0.45078043  0.26522202  0.46317413     1.06000
O31         O  0.32999365  0.28632308  0.51423799    -0.78800
O32         O  0.30609409  0.24727662  0.47021770    -0.66400
Ni33       Ni  0.37135332  0.09785625  0.50412734     1.34900
C34         C  0.26919113  0.19522341  0.46629804     0.84700
O35         O  0.28802480  0.11063487  0.54010218    -0.79300
O36         O  0.31323670  0.05342956  0.52738826    -0.89600
C37         C  0.31921992  0.26274852  0.53380123     0.84300
O38         O  0.42418006  0.14416120  0.52788436    -0.67800
O39         O  0.42520064  0.29069187  0.46582982    -0.87100
C40         C  0.42914814  0.18231411  0.53978752     0.85100
C41         C  0.28746575  0.06597249  0.54126658     1.06700
H42         H  0.41093339  0.24613576  0.50483558     0.38500
O43         O  0.37191270  0.22920530  0.49962664    -1.09700
O44         O  0.27730299  0.15855745  0.47329037    -0.66400
Ni45       Ni  0.35488660  0.18146066  0.47558260     1.26300
O46         O  0.39580851  0.19785990  0.53775458    -0.66600
O47         O  0.43440038  0.21877460  0.47323432    -0.78900
C48         C  0.32239992  0.07263042  0.45881102     0.84500
O49         O  0.33814064  0.12347627  0.45516447    -0.66100
Ni50       Ni  0.37496737  0.28863735  0.48928865     1.27400
Ni51       Ni  0.32804219  0.17336516  0.52033955     1.26100
H52         H  0.29411352  0.10168732  0.49704480     0.39100
O53         O  0.26586537  0.41383642  0.72510601    -0.74400
O54         O  0.33152980  0.03296431  0.76985226    -0.74400
O55         O  0.33636692  0.03147761  0.72428896    -0.74500
O56         O  0.26085386  0.41366430  0.77140865    -0.74600
O57         O  0.33966427  0.41393159  0.77268929    -0.74500
O58         O  0.41672006  0.03495113  0.72867109    -0.74500
O59         O  0.40973900  0.03253839  0.77408354    -0.74400
O60         O  0.34875718  0.42149502  0.72705048    -0.74500
Ni61       Ni  0.29102872  0.46942978  0.74761942     1.25400
Ni62       Ni  0.37723526  0.47323220  0.75125031     1.25400
C63         C  0.30096046  0.40451395  0.71706551     0.87800
C64         C  0.37979833  0.05067178  0.77948723     0.87700
C65         C  0.38660378  0.04841431  0.71789088     0.87700
C66         C  0.29024302  0.39643222  0.78006598     0.87900
O67         O  0.15378341  0.08441221  0.72648146    -0.74400
O68         O  0.08699561  0.11735985  0.77257406    -0.74400
O69         O  0.08848091  0.12431894  0.72653145    -0.74500
O70         O  0.15336235  0.07954496  0.77170513    -0.74600
O71         O  0.23201671  0.16693650  0.77287617    -0.74500
O72         O  0.16544277  0.21228112  0.72927847    -0.74500
O73         O  0.16524239  0.20422506  0.77529993    -0.74400
O74         O  0.23099665  0.17243038  0.72716236    -0.74500
Ni75       Ni  0.11773805  0.09845144  0.74919647     1.25400
Ni76       Ni  0.20121617  0.19221733  0.75112600     1.25400
C77         C  0.20299260  0.12282864  0.71912149     0.87800
C78         C  0.11640676  0.16424746  0.78277871     0.87700
C79         C  0.11739917  0.17540538  0.72003442     0.87700
C80         C  0.20257327  0.11671602  0.78015753     0.87900
O81         O  0.05034170  0.42489877  0.77258983    -0.74400
O82         O  0.42919236  0.36773298  0.72829797    -0.74400
O83         O  0.43656628  0.36785193  0.77381425    -0.74500
O84         O  0.04245158  0.42719452  0.72725650    -0.74600
O85         O  0.03279529  0.34608402  0.72397544    -0.74500
O86         O  0.43659083  0.29145560  0.77585405    -0.74500
O87         O  0.41982485  0.28625961  0.72964151    -0.74400
O88         O  0.04866725  0.34774641  0.76931884    -0.74500
Ni89       Ni  0.98968379  0.39965934  0.75056425     1.25400
Ni90       Ni  0.48397178  0.31469838  0.74962729     1.25400
C91         C  0.06769721  0.39428977  0.77865017     0.87800
C92         C  0.40789986  0.31873487  0.72066757     0.87700
C93         C  0.42570561  0.32448465  0.78439994     0.87700
C94         C  0.05133150  0.39536923  0.71672924     0.87900
C95         C  0.46879168  0.20389419  0.55932483     0.02300
C96         C  0.02860534  0.22925849  0.55859129     0.02300
C97         C  0.06031810  0.24213521  0.57876829    -0.18300
C98         C  0.03345871  0.22641258  0.59950316     0.02300
C99         C  0.47352126  0.20073804  0.60017967     0.02300
C100        C  0.44283666  0.19287814  0.58028712    -0.18300
H101        H  0.39696850  0.17223837  0.58106210     0.04300
H102        H  0.10612861  0.26111730  0.57828898     0.04300
C103        C  0.22022830  0.47066052  0.56092125     0.02300
C104        C  0.25911928  0.03068074  0.56140941     0.02300
C105        C  0.27192609  0.05954788  0.58182742    -0.18300
C106        C  0.24454652  0.03246407  0.60180740     0.02300
C107        C  0.20387018  0.47402694  0.60069055     0.02300
C108        C  0.19699150  0.44402669  0.58158980    -0.18300
H109        H  0.16832010  0.39889224  0.58255064     0.04300
H110        H  0.30211385  0.10442280  0.58205196     0.04300
C111        C  0.28325335  0.29755586  0.94646773     0.02300
C112        C  0.30709135  0.26624772  0.94849617     0.02300
C113        C  0.33180184  0.26064411  0.92948221    -0.18300
C114        C  0.32809097  0.28058667  0.90832201     0.02300
C115        C  0.29651875  0.30462822  0.90557721     0.02300
C116        C  0.27650627  0.31408972  0.92489422    -0.18300
H117        H  0.25428146  0.33424452  0.92302548     0.04300
H118        H  0.35175386  0.23815255  0.93086543     0.04300
C119        C  0.28336638  0.31616828  0.55158056     0.02300
C120        C  0.31135696  0.28863514  0.55301051     0.02300
C121        C  0.33482602  0.28614306  0.57373712    -0.18300
C122        C  0.33155307  0.31066679  0.59277933     0.02300
C123        C  0.30911553  0.34314653  0.59087497     0.02300
C124        C  0.28472249  0.34526084  0.57045022    -0.18300
H125        H  0.26345477  0.36655661  0.56973616     0.04300
H126        H  0.35521627  0.26405294  0.57529100     0.04300
C127        C  0.21353329  0.01676850  0.94310842     0.02300
C128        C  0.18837300  0.45755301  0.94250867     0.02300
C129        C  0.17898724  0.43276307  0.92143571    -0.18300
C130        C  0.17979728  0.45984814  0.90179853     0.02300
C131        C  0.21248398  0.02382586  0.90238959     0.02300
C132        C  0.23196280  0.04867551  0.92332940    -0.18300
H133        H  0.25904667  0.09394322  0.92425309     0.04300
H134        H  0.16538341  0.38970602  0.92034968     0.04300
C135        C  0.46308235  0.21053559  0.93769475     0.02300
C136        C  0.02412705  0.24525635  0.93831853     0.02300
C137        C  0.05426994  0.25209869  0.91847211    -0.18300
C138        C  0.02586145  0.22539001  0.89841059     0.02300
C139        C  0.46548796  0.19612756  0.89729707     0.02300
C140        C  0.43524639  0.18957253  0.91668289    -0.18300
H141        H  0.38880326  0.16384181  0.91550757     0.04300
H142        H  0.10074064  0.27690975  0.91875194     0.04300
O143        O  0.17579322  0.21124995  0.48711239    -0.80900
O144        O  0.18095023  0.38218117  0.54491783    -0.65600
O145        O  0.13753368  0.27253067  0.50105169    -1.12200
C146        C  0.23035562  0.43539210  0.45873877     1.06000
O147        O  0.19818167  0.45335487  0.52153445    -0.78800
O148        O  0.09355493  0.36502579  0.47313354    -0.66400
Ni149      Ni  0.13163698  0.21166848  0.51175419     1.34900
C150        C  0.08509329  0.32552733  0.46115194     0.84700
O151        O  0.08053183  0.28886082  0.52803426    -0.79300
O152        O  0.08363252  0.21310418  0.53524359    -0.89600
C153        C  0.19983140  0.43385907  0.54105817     0.84300
O154        O  0.20003480  0.25055298  0.53091285    -0.67800
O155        O  0.20663994  0.45048452  0.47252525    -0.87100
C156        C  0.23923142  0.30225590  0.53418605     0.85100
C157        C  0.06184943  0.24194079  0.53818298     1.06700
H158        H  0.22183432  0.39970658  0.50287121     0.38500
O159        O  0.18142551  0.37135728  0.50048552    -1.09700
O160        O  0.11575627  0.30663303  0.46278869    -0.66400
Ni161      Ni  0.18313854  0.32704739  0.48012761     1.26300
O162        O  0.23466821  0.34042485  0.52624780    -0.66600
O163        O  0.22643009  0.38899596  0.46021099    -0.78900
C164        C  0.18768696  0.23460150  0.46751037     0.84500
O165        O  0.18820614  0.27775290  0.46229139    -0.66100
Ni166      Ni  0.14886715  0.40985701  0.49627912     1.27400
Ni167      Ni  0.15898720  0.32207861  0.52481903     1.26100
H168        H  0.09873682  0.25753815  0.49603816     0.39100
O169        O  0.04442289  0.30573848  0.02167205    -0.80900
O170        O  0.22188085  0.31858849  0.96035573    -0.65600
O171        O  0.12860053  0.32477261  0.99993880    -1.12200
C172        C  0.26484385  0.44414221  0.03630155     1.06000
O173        O  0.28862209  0.32594562  0.98496749    -0.78800
O174        O  0.25490407  0.30775817  0.02967986    -0.66400
Ni175      Ni  0.08695696  0.35448934  0.99660306     1.34900
C176        C  0.20192458  0.26957959  0.03292919     0.84700
O177        O  0.10843553  0.28079226  0.95949789    -0.79300
O178        O  0.04454234  0.29803345  0.97254921    -0.89600
C179        C  0.26300210  0.31382095  0.96545679     0.84300
O180        O  0.13134351  0.40924872  0.97387116    -0.67800
O181        O  0.29452517  0.42281962  0.03302793    -0.87100
C182        C  0.17163350  0.41852502  0.96158618     0.85100
C183        C  0.06014688  0.27553248  0.95847149     1.06700
H184        H  0.24572469  0.40555314  0.99477824     0.38500
O185        O  0.23016872  0.36782966  0.99970581    -1.09700
O186        O  0.16268134  0.27394651  0.02482223    -0.66400
Ni187      Ni  0.18109429  0.34760074  0.02383026     1.26300
O188        O  0.19177031  0.38916972  0.96247101    -0.66600
O189        O  0.21522827  0.42430275  0.02683493    -0.78900
C190        C  0.06651859  0.30588075  0.04100604     0.84500
O191        O  0.12046784  0.32641430  0.04446516    -0.66100
Ni192      Ni  0.29281309  0.37267849  0.00964801     1.27400
Ni193      Ni  0.17287461  0.32354222  0.97901337     1.26100
H194        H  0.10024046  0.28533395  0.00224453     0.39100
O195        O  0.47427414  0.15239770  0.22702313    -0.74400
O196        O  0.08870078  0.23252126  0.27335716    -0.74400
O197        O  0.08565738  0.23366751  0.22678365    -0.74500
O198        O  0.47758561  0.15144409  0.27313283    -0.74600
O199        O  0.49979237  0.08932238  0.27325890    -0.74500
O200        O  0.10701179  0.17080914  0.22665780    -0.74500
O201        O  0.11097559  0.17043295  0.27243819    -0.74400
O202        O  0.49565206  0.08967089  0.22698494    -0.74500
Ni203      Ni  0.03097248  0.19494174  0.25008272     1.25400
Ni204      Ni  0.05397622  0.12777692  0.24981500     1.25400
C205        C  0.46940747  0.11007302  0.21830606     0.87800
C206        C  0.11520542  0.21193818  0.28155060     0.87700
C207        C  0.11050462  0.21314917  0.21805199     0.87700
C208        C  0.47437615  0.10932295  0.28194245     0.87900
O209        O  0.30173558  0.35073536  0.27198443    -0.74400
O210        O  0.32656465  0.27676371  0.22608924    -0.74400
O211        O  0.32732773  0.27567814  0.27206875    -0.74500
O212        O  0.30160233  0.35244474  0.22553192    -0.74600
O213        O  0.39492769  0.42062415  0.22634934    -0.74500
O214        O  0.42093584  0.34399845  0.27205159    -0.74500
O215        O  0.42000834  0.34552924  0.22664970    -0.74400
O216        O  0.39514303  0.41854912  0.27258705    -0.74500
Ni217      Ni  0.31082566  0.31150272  0.24888040     1.25400
Ni218      Ni  0.41092149  0.38475546  0.24942048     1.25400
C219        C  0.34532528  0.39430580  0.28114606     0.87800
C220        C  0.37706386  0.30011322  0.21842098     0.87700
C221        C  0.37822045  0.29876926  0.28019494     0.87700
C222        C  0.34517244  0.39680136  0.21704830     0.87900
C223        C  0.30447077  0.03688586  0.43867367     0.02300
C224        C  0.25958539  0.46977532  0.43833490     0.02300
C225        C  0.25417956  0.43995565  0.41880122    -0.18300
C226        C  0.27519814  0.46673971  0.39815314     0.02300
C227        C  0.32228968  0.03543439  0.39880620     0.02300
C228        C  0.33201131  0.06458742  0.41853199    -0.18300
H229        H  0.36343742  0.10942984  0.41826081     0.04300
H230        H  0.23365562  0.39523476  0.41954034     0.04300
O231        O  0.18742550  0.47253827  0.27230377    -0.74400
O232        O  0.21673859  0.08504716  0.22747683    -0.74400
O233        O  0.21873599  0.07951135  0.27371971    -0.74500
O234        O  0.18398067  0.47392934  0.22656353    -0.74600
O235        O  0.09491778  0.45289611  0.22693723    -0.74500
O236        O  0.13410188  0.06809452  0.27463490    -0.74500
O237        O  0.13279416  0.07499527  0.22829948    -0.74400
O238        O  0.09796833  0.45042034  0.27240406    -0.74500
Ni239      Ni  0.19377979  0.02779932  0.24959000     1.25400
Ni240      Ni  0.11396220  0.50497425  0.25008451     1.25400
C241        C  0.13697467  0.44517230  0.28035529     0.87800
C242        C  0.18093326  0.09441983  0.21903928     0.87700
C243        C  0.18342964  0.08621225  0.28344546     0.87700
C244        C  0.13267215  0.44766404  0.21870623     0.87900
C245        C  0.30481001  0.03619172  0.05825023     0.02300
C246        C  0.27870956  0.47787312  0.05672479     0.02300
C247        C  0.27008066  0.44803520  0.07680866    -0.18300
C248        C  0.27684082  0.47193575  0.09765072     0.02300
C249        C  0.31241031  0.03319821  0.09930524     0.02300
C250        C  0.32147017  0.06291237  0.07931913    -0.18300
H251        H  0.34463733  0.10790974  0.08010956     0.04300
H252        H  0.25860824  0.40561573  0.07628125     0.04300
C253        C  0.19478967  0.20774112  0.44848841     0.02300
C254        C  0.22246818  0.17970630  0.44963535     0.02300
C255        C  0.21763820  0.14843634  0.43078977    -0.18300
C256        C  0.19208581  0.15071744  0.41057684     0.02300
C257        C  0.17324572  0.18616576  0.40881528     0.02300
C258        C  0.17132642  0.21093549  0.42792897    -0.18300
H259        H  0.15241866  0.23441189  0.42645247     0.04300
H260        H  0.23723437  0.12557220  0.43125831     0.04300
C261        C  0.20166400  0.18973648  0.05264285     0.02300
C262        C  0.18707953  0.22911657  0.05138777     0.02300
C263        C  0.16649400  0.23887728  0.07065232    -0.18300
C264        C  0.16127459  0.21162052  0.09088462     0.02300
C265        C  0.17232739  0.17024691  0.09183972     0.02300
C266        C  0.19276397  0.16005071  0.07290216    -0.18300
H267        H  0.20227671  0.12892492  0.07405828     0.04300
H268        H  0.15827431  0.27096113  0.07039094     0.04300
C269        C  0.48483007  0.28005151  0.44278604     0.02300
C270        C  0.04510878  0.30725586  0.44176982     0.02300
C271        C  0.07121540  0.32378849  0.42073822    -0.18300
C272        C  0.03929881  0.31502807  0.40104804     0.02300
C273        C  0.47912925  0.28509427  0.40198258     0.02300
C274        C  0.45276451  0.26754952  0.42272631    -0.18300
H275        H  0.40659137  0.24638838  0.42331148     0.04300
H276        H  0.11760488  0.34782628  0.41981869     0.04300
C277        C  0.03015315  0.28583497  0.06110431     0.02300
C278        C  0.46944602  0.24690235  0.06089582     0.02300
C279        C  0.43970051  0.23702686  0.08096114    -0.18300
C280        C  0.46767110  0.26610059  0.10050987     0.02300
C281        C  0.02758185  0.30458836  0.10067522     0.02300
C282        C  0.05811994  0.31280906  0.08138844    -0.18300
H283        H  0.10409107  0.34394142  0.08196272     0.04300
H284        H  0.39340147  0.20821233  0.08124284     0.04300
C285        C  0.12523491  0.41327944  0.30104035    -0.05200
C286        C  0.10216510  0.35618743  0.30100126    -0.05200
C287        C  0.08463782  0.32589993  0.32113801    -0.23300
C288        C  0.08975231  0.35247576  0.34132500     0.18900
C289        C  0.11238064  0.41001021  0.34117445     0.16100
C290        C  0.13082869  0.44008865  0.32109937    -0.18400
C291        C  0.11432446  0.43614618  0.36093380    -0.20200
C292        C  0.09245183  0.40512581  0.38061712    -0.12800
C293        C  0.06981850  0.34802004  0.38093830     0.03900
C294        C  0.07106907  0.32238872  0.36153417    -0.24900
H295        H  0.09640937  0.33499505  0.28542323     0.09000
H296        H  0.06558150  0.28159947  0.32086720     0.12600
H297        H  0.14757874  0.48407368  0.32087429     0.12500
H298        H  0.13084748  0.48003625  0.36097903     0.12300
H299        H  0.09162941  0.42527868  0.39550695     0.12800
H300        H  0.55541252  0.27875538  0.36198354     0.14800
C301        C  0.05804727  0.34136946  0.12000357    -0.05200
C302        C  0.07951213  0.39814404  0.11854674    -0.05200
C303        C  0.10208533  0.43153885  0.13763119    -0.23300
C304        C  0.10199822  0.40791607  0.15838227     0.18900
C305        C  0.08067237  0.35078662  0.15979110     0.16100
C306        C  0.06102239  0.31867691  0.14041403    -0.18400
C307        C  0.07757244  0.32625740  0.18066368    -0.20200
C308        C  0.09632586  0.35822727  0.20005865    -0.12800
C309        C  0.11783139  0.41476730  0.19862740     0.03900
C310        C  0.12104866  0.43977306  0.17788845    -0.24900
H311        H  0.57738902  0.41611943  0.10278831     0.09000
H312        H  0.61794003  0.47520198  0.13632144     0.12600
H313        H  0.04511499  0.27525948  0.14140203     0.12500
H314        H  0.05882795  0.28214847  0.18206909     0.12300
H315        H  0.09272435  0.33871191  0.21617549     0.12800
H316        H  0.13693326  0.48355789  0.17709738     0.14800
C317        C  0.19602333  0.10681741  0.30668769    -0.05200
C318        C  0.25269277  0.14150880  0.31480602    -0.05200
C319        C  0.26410024  0.15183505  0.33779340    -0.23300
C320        C  0.21935461  0.12641241  0.35308004     0.18900
C321        C  0.16218799  0.09087708  0.34505704     0.16100
C322        C  0.15087610  0.08216924  0.32195865    -0.18400
C323        C  0.11721239  0.06516032  0.36025391    -0.20200
C324        C  0.12847109  0.07830261  0.38297809    -0.12800
C325        C  0.18473502  0.11758795  0.39077625     0.03900
C326        C  0.23048798  0.13850213  0.37607864    -0.24900
H327        H  0.28809947  0.15954982  0.30340047     0.09000
H328        H  0.30788672  0.17881453  0.34374374     0.12600
H329        H  0.10697507  0.05399926  0.31596541     0.12500
H330        H  0.07314323  0.03759512  0.35440776     0.12300
H331        H  0.09270662  0.06252034  0.39408362     0.12800
H332        H  0.27382921  0.16951091  0.38199310     0.14800
C333        C  0.19086170  0.11918423  0.19635031    -0.05200
C334        C  0.24558619  0.14781267  0.18701045    -0.05200
C335        C  0.25254195  0.15920755  0.16399075    -0.23300
C336        C  0.20504358  0.14180386  0.14986311     0.18900
C337        C  0.14971921  0.11217584  0.15903657     0.16100
C338        C  0.14311958  0.10219329  0.18220199    -0.18400
C339        C  0.10180433  0.09245515  0.14484425    -0.20200
C340        C  0.10897660  0.10595517  0.12203966    -0.12800
C341        C  0.16418150  0.13958247  0.11313585     0.03900
C342        C  0.21199791  0.15498157  0.12686071    -0.24900
H343        H  0.28265825  0.15930110  0.19737677     0.09000
H344        H  0.29471934  0.17997663  0.15705700     0.12600
H345        H  0.10032336  0.07816570  0.18897874     0.12500
H346        H  0.05904748  0.06840008  0.15153982     0.12300
H347        H  0.07172441  0.09393900  0.11165766     0.12800
H348        H  0.25468789  0.18124888  0.12007091     0.14800
C349        C  0.44432389  0.27988840  0.38205301    -0.05200
C350        C  0.41893638  0.30943950  0.38118173    -0.05200
C351        C  0.39485691  0.31330713  0.36114255    -0.23300
C352        C  0.39812823  0.28957081  0.34158793     0.18900
C353        C  0.42230040  0.25847562  0.34248641     0.16100
C354        C  0.44196741  0.25098625  0.36309268    -0.18400
C355        C  0.42880879  0.23780288  0.32261489    -0.20200
C356        C  0.41224676  0.24862296  0.30197027    -0.12800
C357        C  0.38736142  0.27852922  0.30122876     0.03900
C358        C  0.37971348  0.29827733  0.32100399    -0.24900
H359        H  0.41990777  0.33140691  0.39579596     0.09000
H360        H  0.37638375  0.33719768  0.36067601     0.12600
H361        H  0.45892043  0.22581183  0.36409857     0.12500
H362        H  0.44885623  0.21541314  0.32298118     0.12300
H363        H  0.41990747  0.23482928  0.28663013     0.12800
H364        H  0.36247472  0.32329860  0.32014805     0.14800
C365        C  0.38546007  0.27805334  0.19835216    -0.05200
C366        C  0.40772240  0.24580781  0.19972945    -0.05200
C367        C  0.42148230  0.23066768  0.18015869    -0.23300
C368        C  0.41426378  0.24870030  0.15913697     0.18900
C369        C  0.39243359  0.28188146  0.15781339     0.16100
C370        C  0.37711680  0.29535894  0.17742340    -0.18400
C371        C  0.38814565  0.30259254  0.13699674    -0.20200
C372        C  0.40952203  0.29416509  0.11791751    -0.12800
C373        C  0.43324255  0.26314065  0.11929421     0.03900
C374        C  0.43160497  0.23700802  0.13955746    -0.24900
H375        H  0.41551494  0.23343518  0.21590647     0.09000
H376        H  0.44030695  0.20723858  0.18149249     0.12600
H377        H  0.36122703  0.32153132  0.17655075     0.12500
H378        H  0.37121086  0.32779851  0.13570500     0.12300
H379        H  0.41015983  0.31410646  0.10227832     0.12800
H380        H  0.44820028  0.21148436  0.14039138     0.14800
C381        C  0.33984260  0.41316235  0.30329476    -0.05200
C382        C  0.38955551  0.44763164  0.31655173    -0.05200
C383        C  0.38585347  0.45876581  0.33881977    -0.23300
C384        C  0.33241625  0.43716434  0.34822824     0.18900
C385        C  0.28193764  0.40292831  0.33519056     0.16100
C386        C  0.28585022  0.39071390  0.31283212    -0.18400
C387        C  0.22864472  0.38200652  0.34479182    -0.20200
C388        C  0.22582090  0.39926255  0.36621763    -0.12800
C389        C  0.27604141  0.43607506  0.37861432     0.03900
C390        C  0.32888588  0.45145138  0.37014830    -0.24900
H391        H  0.43166709  0.46456858  0.30997058     0.09000
H392        H  0.42498893  0.48488439  0.34862677     0.12600
H393        H  0.24706196  0.36362712  0.30296368     0.12500
H394        H  0.18952014  0.35409468  0.33536301     0.12300
H395        H  0.18491981  0.38617989  0.37278364     0.12800
H396        H  0.36778706  0.47862231  0.37994943     0.14800
C397        C  0.27556169  0.44224680  0.11825414    -0.05200
C398        C  0.22619444  0.41281230  0.13124520    -0.05200
C399        C  0.22914925  0.39671291  0.15324064    -0.23300
C400        C  0.28193487  0.41174069  0.16269423     0.18900
C401        C  0.33129237  0.43990388  0.14930463     0.16100
C402        C  0.32725747  0.45300186  0.12694322    -0.18400
C403        C  0.38449295  0.45692949  0.15874641    -0.20200
C404        C  0.38897088  0.44617073  0.18127616    -0.12800
C405        C  0.34011462  0.41679374  0.19472020     0.03900
C406        C  0.28650567  0.39973685  0.18530305    -0.24900
H407        H  0.18616931  0.40453521  0.12466011     0.09000
H408        H  0.19089778  0.37461703  0.16317215     0.12600
H409        H  0.36545021  0.47616135  0.11688559     0.12500
H410        H  0.42279420  0.47897637  0.14875081     0.12300
H411        H  0.43063883  0.45887443  0.18792056     0.12800
H412        H  0.24850520  0.37678168  0.19544988     0.14800
C413        C  0.35505124  0.06533767  0.37851239    -0.05200
C414        C  0.33535123  0.08944089  0.36386791    -0.05200
C415        C  0.35456324  0.10263440  0.34183189    -0.23300
C416        C  0.39297744  0.09114250  0.33413420     0.18900
C417        C  0.41452662  0.06874049  0.34910297     0.16100
C418        C  0.39697118  0.05789072  0.37142373    -0.18400
C419        C  0.45106991  0.05507291  0.34124312    -0.20200
C420        C  0.46673407  0.06418545  0.31878569    -0.12800
C421        C  0.44719731  0.08832741  0.30392097     0.03900
C422        C  0.40983024  0.10125156  0.31169195    -0.24900
H423        H  0.30233099  0.09446836  0.36906331     0.09000
H424        H  0.33746949  0.11930701  0.33045427     0.12600
H425        H  0.40619248  0.58149309  0.38315668     0.12500
H426        H  0.46758564  0.03740022  0.35245806     0.12300
H427        H  0.49654164  0.05493522  0.31334218     0.12800
H428        H  0.39480945  0.12018805  0.30039394     0.14800
C429        C  0.44049210  0.08962683  0.19615581    -0.05200
C430        C  0.46371449  0.07147556  0.18108073    -0.05200
C431        C  0.44706204  0.06340436  0.15854898    -0.23300
C432        C  0.40567260  0.07178745  0.15066854     0.18900
C433        C  0.37935159  0.08703682  0.16572076     0.16100
C434        C  0.39756293  0.09669534  0.18843980    -0.18400
C435        C  0.33531333  0.09197111  0.15767068    -0.20200
C436        C  0.27645735  0.55163833  0.13675240    -0.12800
C437        C  0.34158492  0.06298979  0.12049844     0.03900
C438        C  0.38842387  0.06243640  0.12808269    -0.24900
H439        H  0.49736511  0.06650216  0.18644124     0.09000
H440        H  0.46650860  0.05050226  0.14721740     0.19200
H441        H  0.37933542  0.11063916  0.19993297     0.12500
H442        H  0.26537120  0.55865637  0.17171882     0.12300
H443        H  0.23200367  0.53417440  0.13243554     0.12800
H444        H  0.40770443  0.04918401  0.11677290     0.14800
C445        C  0.14184946  0.22846749  0.30397700    -0.05200
C446        C  0.19825950  0.24482589  0.30807582    -0.05200
C447        C  0.21799177  0.24720309  0.33008808    -0.23300
C448        C  0.18036832  0.22982237  0.34806788     0.18900
C449        C  0.12344785  0.21322730  0.34399591     0.16100
C450        C  0.10513102  0.21401170  0.32204824    -0.18400
C451        C  0.08466512  0.19240411  0.36168082    -0.20200
C452        C  0.10122524  0.18494940  0.38298289    -0.12800
C453        C  0.15706446  0.19938870  0.38694834     0.03900
C454        C  0.19734542  0.22482478  0.36975991    -0.24900
H455        H  0.22621195  0.25374704  0.29424357     0.09000
H456        H  0.26142134  0.25911520  0.33293227     0.12600
H457        H  0.06054893  0.19818768  0.31877482     0.12500
H458        H  0.04085660  0.17950416  0.35879049     0.12300
H459        H  0.06998972  0.16616573  0.39617395     0.12800
H460        H  0.24106587  0.23782517  0.37302315     0.14800
C461        C  0.14738365  0.22808049  0.11159974    -0.05200
C462        C  0.09010387  0.20677926  0.11585319    -0.05200
C463        C  0.07302151  0.20458096  0.13776792    -0.23300
C464        C  0.11318463  0.22427992  0.15558202     0.18900
C465        C  0.17154011  0.24833342  0.15127461     0.16100
C466        C  0.18857607  0.25188148  0.12914007    -0.18400
C467        C  0.21066980  0.26346572  0.16929468    -0.20200
C468        C  0.19172690  0.25371419  0.19140656    -0.12800
C469        C  0.13426246  0.23151056  0.19565534     0.03900
C470        C  0.09528664  0.21689874  0.17772088    -0.24900
H471        H  0.05791050  0.18749055  0.10254152     0.09000
H472        H  0.02793510  0.18489263  0.14091726     0.12600
H473        H  0.23267931  0.26737194  0.12581613     0.12500
H474        H  0.25521700  0.28037538  0.16626726     0.12300
H475        H  0.22138459  0.26223478  0.20511033     0.12800
H476        H  0.05016040  0.19661069  0.18106750     0.14800
C477        C  0.35907257  0.27865435  0.88933219    -0.05200
C478        C  0.34380431  0.22772005  0.88027936    -0.05200
C479        C  0.35695760  0.22560467  0.85798381    -0.23300
C480        C  0.38384449  0.27407136  0.84459926     0.18900
C481        C  0.40325083  0.32568795  0.85468060     0.16100
C482        C  0.39453802  0.32798577  0.87732535    -0.18400
C483        C  0.42573687  0.37365472  0.84165662    -0.20200
C484        C  0.42807294  0.37078413  0.81867941    -0.12800
C485        C  0.41084080  0.32047320  0.80816445     0.03900
C486        C  0.38950621  0.27201954  0.82129806    -0.24900
H487        H  0.31793965  0.18939975  0.88977059     0.09000
H488        H  0.34247367  0.18574283  0.85079559     0.12600
H489        H  0.40729239  0.36737131  0.88462996     0.12500
H490        H  0.43985729  0.41320804  0.84914816     0.12300
H491        H  0.44608938  0.40929270  0.80925272     0.12800
H492        H  0.37650037  0.23319314  0.81344139     0.14800
C493        C  0.10082538  0.40644135  0.79936166    -0.05200
C494        C  0.16077010  0.44049662  0.80022961    -0.05200
C495        C  0.18957044  0.45032353  0.82089111    -0.23300
C496        C  0.15836191  0.42714470  0.84068262     0.18900
C497        C  0.09781777  0.39198498  0.83952813     0.16100
C498        C  0.06977033  0.38078981  0.81881406    -0.18400
C499        C  0.06603264  0.37160692  0.85917661    -0.20200
C500        C  0.09385824  0.39025492  0.87992331    -0.12800
C501        C  0.15376057  0.42713432  0.88119468     0.03900
C502        C  0.18609310  0.44229206  0.86169675    -0.24900
H503        H  0.18494530  0.45975047  0.78511897     0.09000
H504        H  0.23591479  0.47816332  0.82154419     0.12600
H505        H  0.02337947  0.35370363  0.81788161     0.12500
H506        H  0.01961319  0.34450647  0.85845376     0.12300
H507        H  0.06854899  0.37855200  0.89489442     0.12800
H508        H  0.23228459  0.47127339  0.86282238     0.14800
C509        C  0.16749799  0.44295167  0.61997832    -0.05200
C510        C  0.17249162  0.40334143  0.63135149    -0.05200
C511        C  0.14781485  0.38352371  0.65230962    -0.23300
C512        C  0.12017757  0.40466365  0.66233269     0.18900
C513        C  0.11231098  0.44211533  0.65023033     0.16100
C514        C  0.13279358  0.45809565  0.62853812    -0.18400
C515        C  0.08775691  0.46602430  0.66052654    -0.20200
C516        C  0.07114180  0.45287216  0.68269817    -0.12800
C517        C  0.07729493  0.41437032  0.69469179     0.03900
C518        C  0.10177938  0.39027406  0.68444471    -0.24900
H519        H  0.19774945  0.39011533  0.62452033     0.09000
H520        H  0.15236549  0.35385218  0.66128591     0.12600
H521        H  0.12749709  0.48743487  0.61933655     0.12500
H522        H  0.08233798  0.49555300  0.65159235     0.12300
H523        H  0.05149250  0.47144077  0.69020210     0.12800
H524        H  0.10729184  0.36128104  0.69377833     0.14800
C525        C  0.38044589  0.30433772  0.69849813    -0.05200
C526        C  0.32230795  0.28185253  0.69498306    -0.05200
C527        C  0.29947718  0.27083992  0.67310457    -0.23300
C528        C  0.33511828  0.28435928  0.65468671     0.18900
C529        C  0.39394427  0.30768947  0.65830847     0.16100
C530        C  0.41568303  0.31581571  0.68021557    -0.18400
C531        C  0.43057016  0.32519047  0.64000217    -0.20200
C532        C  0.40967741  0.32336778  0.61830576    -0.12800
C533        C  0.35166491  0.30216117  0.61469296     0.03900
C534        C  0.31392066  0.27882489  0.63273337    -0.24900
H535        H  0.29507914  0.27365638  0.70899706     0.09000
H536        H  0.25452766  0.25401476  0.67051302     0.12600
H537        H  0.46075105  0.33335759  0.68306012     0.12500
H538        H  0.47583713  0.34308042  0.64258391     0.12300
H539        H  0.43917877  0.34086756  0.60451305     0.12800
H540        H  0.26871842  0.26052530  0.62979524     0.14800
C541        C  0.05873123  0.22518003  0.87914240    -0.05200
C542        C  0.10058824  0.27493035  0.86834095    -0.05200
C543        C  0.12091596  0.27392946  0.84727997    -0.23300
C544        C  0.10042782  0.22289160  0.83680645     0.18900
C545        C  0.06145848  0.17268881  0.84838268     0.16100
C546        C  0.04275664  0.17425266  0.86973214    -0.18400
C547        C  0.03951018  0.12149870  0.83802973    -0.20200
C548        C  0.05582417  0.11975615  0.81640807    -0.12800
C549        C  0.09536151  0.16909173  0.80463337     0.03900
C550        C  0.11765052  0.22086523  0.81502604    -0.24900
H551        H  0.61587046  0.31447587  0.87580923     0.09000
H552        H  0.15107547  0.31302984  0.83888062     0.12600
H553        H  0.01216235  0.13552326  0.87831362     0.12500
H554        H  0.00912602  0.08262875  0.84657708     0.12300
H555        H  0.03841241  0.07924283  0.80912553     0.12800
H556        H  0.14795285  0.25924593  0.80621318     0.14800
C557        C  0.22122984  0.10420741  0.80088952    -0.05200
C558        C  0.24171696  0.07045359  0.80161247    -0.05200
C559        C  0.25320844  0.05511383  0.82235777    -0.23300
C560        C  0.24204547  0.07170919  0.84233610     0.18900
C561        C  0.22140415  0.10585495  0.84140536     0.16100
C562        C  0.21262774  0.12299835  0.82068873    -0.18400
C563        C  0.20629790  0.11935767  0.86109948    -0.20200
C564        C  0.20721641  0.09547824  0.88143174    -0.12800
C565        C  0.22531395  0.05963229  0.88237565     0.03900
C566        C  0.24658821  0.05116398  0.86310022    -0.24900
H567        H  0.24765291  0.05525959  0.78627372     0.09000
H568        H  0.26758111  0.02776776  0.82279623     0.12600
H569        H  0.19525709  0.14790900  0.81988477     0.12500
H570        H  0.19034644  0.14543949  0.86055632     0.12300
H571        H  0.10057314  0.51233296  0.89012421     0.12800
H572        H  0.26128850  0.02409420  0.86398057     0.14800
C573        C  0.25395160  0.06638513  0.62199979    -0.05200
C574        C  0.24605379  0.10967866  0.61991156    -0.05200
C575        C  0.23962343  0.13264155  0.63887317    -0.23300
C576        C  0.24088663  0.11279721  0.66030553     0.18900
C577        C  0.25162967  0.07118658  0.66278732     0.16100
C578        C  0.26026341  0.04969508  0.64363175    -0.18400
C579        C  0.24952602  0.04919503  0.68421703    -0.20200
C580        C  0.23609922  0.06779151  0.70287593    -0.12800
C581        C  0.22564972  0.10927270  0.70042532     0.03900
C582        C  0.22820310  0.13158034  0.67913900    -0.24900
H583        H  0.24053957  0.12294697  0.60352469     0.09000
H584        H  0.23010145  0.16349886  0.63669597     0.12600
H585        H  0.26687575  0.01664935  0.64543434     0.12500
H586        H  0.25654641  0.01651419  0.68643116     0.12300
H587        H  0.23260242  0.04896901  0.71915259     0.12800
H588        H  0.21627885  0.16062084  0.67707032     0.14800
C589        C  0.06574185  0.22665572  0.61960979    -0.05200
C590        C  0.09132051  0.19728886  0.61877186    -0.05200
C591        C  0.10603377  0.18132342  0.63847436    -0.23300
C592        C  0.09536356  0.19448393  0.65931756     0.18900
C593        C  0.07332929  0.22735553  0.66039680     0.16100
C594        C  0.05998107  0.24444516  0.64046499    -0.18400
C595        C  0.06422006  0.24163007  0.68138964    -0.20200
C596        C  0.07794549  0.22441186  0.70112330    -0.12800
C597        C  0.09877347  0.19102873  0.69997043     0.03900
C598        C  0.10717824  0.17599638  0.67910912    -0.24900
H599        H  0.09579684  0.18286509  0.60290913     0.09000
H600        H  0.12381230  0.15696881  0.63741813     0.12600
H601        H  0.04078758  0.26759661  0.64116800     0.12500
H602        H  0.04655657  0.26601813  0.68249921     0.12300
H603        H  0.07210067  0.23681051  0.71722357     0.12800
H604        H  0.12422521  0.15092894  0.67834793     0.14800
C605        C  0.39816530  0.08820907  0.79857202    -0.05200
C606        C  0.42853529  0.14627659  0.79593597    -0.05200
C607        C  0.44407999  0.18030839  0.81482246    -0.23300
C608        C  0.42823026  0.15619604  0.83634806     0.18900
C609        C  0.39644081  0.09754187  0.83871940     0.16100
C610        C  0.38271429  0.06432935  0.81990698    -0.18400
C611        C  0.37999082  0.07276190  0.85994037    -0.20200
C612        C  0.39747022  0.10568641  0.87895804    -0.12800
C613        C  0.43288850  0.16397098  0.87707064     0.03900
C614        C  0.44598720  0.18929790  0.85565754    -0.24900
H615        H  0.44049433  0.16509562  0.77939465     0.09000
H616        H  0.46864359  0.22520650  0.81264215     0.12600
H617        H  0.35989953  0.01963896  0.82184016     0.12500
H618        H  0.35551648  0.02793053  0.86191117     0.12300
H619        H  0.38741314  0.08555948  0.89527916     0.12800
H620        H  0.47339007  0.23440309  0.85418602     0.14800
C621        C  0.27136026  0.36120457  0.80050195    -0.05200
C622        C  0.26954265  0.31201731  0.80151656    -0.05200
C623        C  0.26572877  0.28638362  0.82224938    -0.23300
C624        C  0.26839753  0.31206778  0.84237770     0.18900
C625        C  0.27132034  0.36200249  0.84135424     0.16100
C626        C  0.26969630  0.38446715  0.82051024    -0.18400
C627        C  0.27959799  0.39078823  0.86110364    -0.20200
C628        C  0.28881063  0.37268278  0.88154596    -0.12800
C629        C  0.28535957  0.32254414  0.88318553     0.03900
C630        C  0.27176660  0.29084508  0.86342455    -0.24900
H631        H  0.27305583  0.29456176  0.78632916     0.09000
H632        H  0.26498226  0.24885024  0.82258697     0.12600
H633        H  0.27285126  0.42316767  0.81986026     0.12500
H634        H  0.28160521  0.42882298  0.86056685     0.12300
H635        H  0.29965413  0.39886386  0.89604364     0.12800
H636        H  0.26665174  0.25116473  0.86420302     0.14800
C637        C  0.44126240  0.17075343  0.62055536    -0.05200
C638        C  0.41391925  0.18894926  0.63315436    -0.05200
C639        C  0.39532239  0.16769395  0.65485714    -0.23300
C640        C  0.40571046  0.12949347  0.66427456     0.18900
C641        C  0.43183710  0.11035720  0.65111297     0.16100
C642        C  0.44584127  0.12832039  0.62900077    -0.18400
C643        C  0.44730769  0.07647423  0.66060785    -0.20200
C644        C  0.43651887  0.06093348  0.68298764    -0.12800
C645        C  0.40706076  0.07616049  0.69598734     0.03900
C646        C  0.39173060  0.11073205  0.68661133    -0.24900
H647        H  0.40934910  0.22111985  0.62659351     0.09000
H648        H  0.37535437  0.18296278  0.66458994     0.12600
H649        H  0.46622668  0.11376018  0.61905292     0.12500
H650        H  0.46888709  0.06294449  0.65085165     0.12300
H651        H  0.44918968  0.03476165  0.68988875     0.12800
H652        H  0.36973295  0.12325311  0.69667264     0.14800
C653        C  0.29126456  0.38346507  0.69408214    -0.05200
C654        C  0.23629873  0.34272217  0.68577259    -0.05200
C655        C  0.22756340  0.33067275  0.66283842    -0.23300
C656        C  0.27245008  0.36106160  0.64781589     0.18900
C657        C  0.32773001  0.40263576  0.65610435     0.16100
C658        C  0.33694681  0.41258113  0.67917061    -0.18400
C659        C  0.37320114  0.43251917  0.64125963    -0.20200
C660        C  0.36492613  0.41794245  0.61867316    -0.12800
C661        C  0.31105467  0.37370276  0.61065064     0.03900
C662        C  0.26394013  0.34799214  0.62489009    -0.24900
H663        H  0.20035834  0.32063738  0.69695173     0.09000
H664        H  0.18570091  0.29824318  0.65663409     0.12600
H665        H  0.37942145  0.44450963  0.68546554     0.12500
H666        H  0.41586571  0.46462072  0.64734978     0.12300
H667        H  0.40174596  0.43749989  0.60790681     0.12800
H668        H  0.22252969  0.31317369  0.61876729     0.14800
O669        O  0.19150065  0.66357278  0.01475864    -0.80900
O670        O  0.36124086  0.66505989  0.95504088    -0.65600
O671        O  0.25160852  0.62340238  0.00025012    -1.12200
C672        C  0.42253740  0.71601061  0.04091882     1.06000
O673        O  0.43715688  0.68521362  0.97764133    -0.78800
O674        O  0.35108515  0.58264664  0.02635699    -0.66400
Ni675      Ni  0.18851687  0.61759420  0.99029551     1.34900
C676        C  0.31069952  0.57312764  0.03873218     0.84700
O677        O  0.26687389  0.56700496  0.97304175    -0.79300
O678        O  0.18725940  0.56800355  0.96707830    -0.89600
C679        C  0.41525238  0.68561259  0.95831053     0.84300
O680        O  0.22640690  0.68243960  0.97029785    -0.67800
O681        O  0.43806862  0.69389324  0.02665672    -0.87100
C682        C  0.27918229  0.72068070  0.96661360     0.85100
C683        C  0.21703568  0.54695625  0.96374386     1.06700
H684        H  0.38152300  0.70618322  0.99755213     0.38500
O685        O  0.35314925  0.66677311  0.99995920    -1.09700
O686        O  0.28995990  0.60197215  0.03764837    -0.66400
Ni687      Ni  0.30843344  0.66760353  0.02113237     1.26300
O688        O  0.31903571  0.71724217  0.97467274    -0.66600
O689        O  0.37371743  0.71014110  0.04045037    -0.78900
C690        C  0.21514518  0.67457056  0.03457061     0.84500
O691        O  0.25764345  0.67170971  0.04007312    -0.66100
Ni692      Ni  0.39473878  0.63680428  0.00305976     1.27400
Ni693      Ni  0.30079410  0.64372545  0.97596279     1.26100
H694        H  0.23640502  0.58577633  0.00517572     0.39100
O695        O  0.31414628  0.54844667  0.47623474    -0.80900
O696        O  0.31545125  0.71838434  0.53673427    -0.65600
O697        O  0.32558465  0.62769705  0.49762323    -1.12200
C698        C  0.44835815  0.75938750  0.46281440     1.06000
O699        O  0.32884101  0.78633405  0.51256672    -0.78800
O700        O  0.30710430  0.74982165  0.46803326    -0.66400
Ni701      Ni  0.36296853  0.59351610  0.50150443     1.34900
C702        C  0.26770988  0.69837118  0.46390698     0.84700
O703        O  0.28096387  0.60806704  0.53800387    -0.79300
O704        O  0.30686393  0.55110045  0.52560609    -0.89600
C705        C  0.31630813  0.76197256  0.53203360     0.84300
O706        O  0.41826367  0.64015575  0.52461644    -0.67800
O707        O  0.42593155  0.78796038  0.46532156    -0.87100
C708        C  0.42315564  0.67706463  0.53729752     0.85100
C709        C  0.28139920  0.56399970  0.53951404     1.06700
H710        H  0.40569045  0.74082021  0.50317056     0.38500
O711        O  0.36716101  0.72571176  0.49780009    -1.09700
O712        O  0.27223938  0.65934018  0.47095803    -0.66400
Ni713      Ni  0.34826725  0.67777575  0.47353804     1.26300
O714        O  0.38943953  0.69239802  0.53600121    -0.66600
O715        O  0.42718611  0.71095154  0.47197397    -0.78900
C716        C  0.31071448  0.56697364  0.45668951     0.84500
O717        O  0.32833366  0.61844161  0.45290300    -0.66100
Ni718      Ni  0.37473432  0.78755817  0.48803669     1.27400
Ni719      Ni  0.32219370  0.67056001  0.51839526     1.26100
H720        H  0.28556478  0.59837899  0.49494781     0.39100
O721        O  0.27322899  0.92031470  0.72488939    -0.74400
O722        O  0.32187587  0.52608644  0.76993657    -0.74400
O723        O  0.32805084  0.52525667  0.72407243    -0.74500
O724        O  0.26816897  0.92032272  0.77119501    -0.74600
O725        O  0.34643290  0.91966957  0.77306507    -0.74500
O726        O  0.40957937  0.53143792  0.72939441    -0.74500
O727        O  0.40013661  0.52597472  0.77488666    -0.74400
O728        O  0.35445825  0.92497317  0.72707055    -0.74500
Ni729      Ni  0.29927254  0.97597688  0.74757473     1.25400
Ni730      Ni  0.38451682  0.97792232  0.75099729     1.25400
C731        C  0.30731311  0.90956106  0.71685236     0.87800
C732        C  0.36922104  0.54307726  0.78020449     0.87700
C733        C  0.37917185  0.54376350  0.71809374     0.87700
C734        C  0.29680980  0.90269269  0.78014745     0.87900
O735        O  0.13167687  0.57807530  0.72397760    -0.74400
O736        O  0.07030343  0.61594896  0.77105045    -0.74400
O737        O  0.07397017  0.62670033  0.72518042    -0.74500
O738        O  0.12681456  0.56861636  0.76956411    -0.74600
O739        O  0.21068455  0.65187320  0.77204448    -0.74500
O740        O  0.15628379  0.71087367  0.72874268    -0.74500
O741        O  0.15321772  0.69918836  0.77486103    -0.74400
O742        O  0.21378985  0.66259691  0.72638241    -0.74500
Ni743      Ni  0.09773509  0.59448219  0.74720408     1.25400
Ni744      Ni  0.18643165  0.68424095  0.75051289     1.25400
C745        C  0.18268729  0.61425299  0.71731336     0.87800
C746        C  0.10292428  0.66153951  0.78194637     0.87700
C747        C  0.10708319  0.67802671  0.71931012     0.87700
C748        C  0.17588476  0.60175822  0.77901348     0.87900
O749        O  0.02863888  0.92365437  0.77026135    -0.74400
O750        O  0.40583937  0.85005704  0.72666392    -0.74400
O751        O  0.41532488  0.85586785  0.77223489    -0.74500
O752        O  0.01919898  0.91971725  0.72453994    -0.74600
O753        O  0.02204207  0.84491585  0.72345068    -0.74500
O754        O  0.42581600  0.78581052  0.77532840    -0.74500
O755        O  0.40933626  0.77545591  0.72889529    -0.74400
O756        O  0.03821154  0.85288814  0.76883065    -0.74500
Ni757      Ni  0.96693401  0.88986399  0.74838707     1.25400
Ni758      Ni  0.47370396  0.81180130  0.74912758     1.25400
C759        C  0.05167845  0.89873695  0.77738416     0.87800
C760        C  0.39075500  0.80227215  0.71954207     0.87700
C761        C  0.41006360  0.81545316  0.78344569     0.87700
C762        C  0.03483673  0.89164206  0.71514723     0.87900
C763        C  0.46222052  0.69633393  0.55711086     0.02300
C764        C  0.02316750  0.72852133  0.55683643     0.02300
C765        C  0.05377358  0.74456136  0.57744151    -0.18300
C766        C  0.02596548  0.72552467  0.59808908     0.02300
C767        C  0.46522151  0.69078061  0.59815070     0.02300
C768        C  0.43461018  0.67919406  0.57790612    -0.18300
H769        H  0.38829510  0.65275811  0.57824991     0.04300
H770        H  0.10028916  0.76960752  0.57736880     0.04300
C771        C  0.21892558  0.97187119  0.56139777     0.02300
C772        C  0.25476185  0.52988251  0.56006006     0.02300
C773        C  0.26459425  0.55987360  0.58000467    -0.18300
C774        C  0.23980510  0.53302114  0.60035514     0.02300
C775        C  0.20296777  0.97416190  0.60144740     0.02300
C776        C  0.19257703  0.94462466  0.58172478    -0.18300
H777        H  0.15976798  0.90006716  0.58196012     0.04300
H778        H  0.29064331  0.60504849  0.57961725     0.04300
C779        C  0.26760406  0.79114073  0.94600736     0.02300
C780        C  0.29198058  0.76024311  0.94799049     0.02300
C781        C  0.31534221  0.75357752  0.92877153    -0.18300
C782        C  0.31077490  0.77295124  0.90759790     0.02300
C783        C  0.27926446  0.79702531  0.90504247     0.02300
C784        C  0.25940179  0.80641198  0.92438153    -0.18300
H785        H  0.23725376  0.82664178  0.92242692     0.04300
H786        H  0.33538337  0.73115166  0.93007556     0.04300
C787        C  0.28360406  0.81858559  0.55024549     0.02300
C788        C  0.30811804  0.78758293  0.55147487     0.02300
C789        C  0.32757850  0.78066759  0.57243750    -0.18300
C790        C  0.32574523  0.80542993  0.59170312     0.02300
C791        C  0.31021263  0.84357015  0.58993004     0.02300
C792        C  0.28808473  0.84904059  0.56936345    -0.18300
H793        H  0.27062766  0.87383450  0.56875168     0.04300
H794        H  0.34395445  0.75498901  0.57403446     0.04300
C795        C  0.20194908  0.51269397  0.94350071     0.02300
C796        C  0.17961644  0.95751440  0.94169994     0.02300
C797        C  0.15960574  0.93271664  0.92046815    -0.18300
C798        C  0.17321945  0.96535986  0.90107234     0.02300
C799        C  0.19350156  0.51438038  0.90278893     0.02300
C800        C  0.20531698  0.54046139  0.92342019    -0.18300
H801        H  0.21561192  0.58246753  0.92383908     0.04300
H802        H  0.12992682  0.88773357  0.91917302     0.04300
C803        C  0.45187298  0.70623287  0.93798939     0.02300
C804        C  0.01292189  0.74317859  0.93820650     0.02300
C805        C  0.04258234  0.75013608  0.91816836    -0.18300
C806        C  0.01387291  0.72123712  0.89844255     0.02300
C807        C  0.45329264  0.68845641  0.89796936     0.02300
C808        C  0.42346953  0.68185607  0.91740390    -0.18300
H809        H  0.37707047  0.65387972  0.91660973     0.04300
H810        H  0.08903198  0.77692145  0.91803479     0.04300
O811        O  0.17595523  0.71685989  0.48501104    -0.80900
O812        O  0.17802982  0.88444667  0.54452048    -0.65600
O813        O  0.13710714  0.77727092  0.49988217    -1.12200
C814        C  0.23267042  0.94240967  0.45845654     1.06000
O815        O  0.19839556  0.95767587  0.52167779    -0.78800
O816        O  0.09597142  0.87362557  0.47174269    -0.66400
Ni817      Ni  0.13115999  0.71599735  0.50997377     1.34900
C818        C  0.08527470  0.83240386  0.46029202     0.84700
O819        O  0.07828066  0.79131030  0.52708427    -0.79300
O820        O  0.08179990  0.71565258  0.53364248    -0.89600
C821        C  0.19823286  0.93654374  0.54109433     0.84300
O822        O  0.19957600  0.75434148  0.52929385    -0.67800
O823        O  0.21015270  0.95822540  0.47252533    -0.87100
C824        C  0.23858166  0.80585693  0.53320877     0.85100
C825        C  0.05902244  0.74364711  0.53674449     1.06700
H826        H  0.22122574  0.90379020  0.50247546     0.38500
O827        O  0.18076329  0.87598759  0.49986854    -1.09700
O828        O  0.11466857  0.81214864  0.46212869    -0.66400
Ni829      Ni  0.18261637  0.83245227  0.47909748     1.26300
O830        O  0.23353306  0.84436343  0.52602061    -0.66600
O831        O  0.22613445  0.89479298  0.45934066    -0.78900
C832        C  0.18814850  0.74111639  0.46553328     0.84500
O833        O  0.18793009  0.78403334  0.46076900    -0.66100
Ni834      Ni  0.15032889  0.91651455  0.49562413     1.27400
Ni835      Ni  0.15736428  0.82558426  0.52403550     1.26100
H836        H  0.09831017  0.76220054  0.49486129     0.39100
O837        O  0.03467623  0.80709955  0.02141739    -0.80900
O838        O  0.21136266  0.81839012  0.96003407    -0.65600
O839        O  0.11917032  0.82568969  0.99978844    -1.12200
C840        C  0.25951313  0.94178581  0.03724236     1.06000
O841        O  0.27430664  0.81939815  0.98470989    -0.78800
O842        O  0.24185895  0.80257486  0.02941487    -0.66400
Ni843      Ni  0.07641740  0.85433774  0.99583588     1.34900
C844        C  0.18866983  0.76565990  0.03282723     0.84700
O845        O  0.09894716  0.78278213  0.95879204    -0.79300
O846        O  0.03296778  0.79607616  0.97252489    -0.89600
C847        C  0.24961692  0.80955041  0.96509868     0.84300
O848        O  0.11911805  0.90699081  0.97213866    -0.67800
O849        O  0.28695106  0.91856707  0.03322403    -0.87100
C850        C  0.16165633  0.91827171  0.96079419     0.85100
C851        C  0.04949089  0.77508940  0.95813569     1.06700
H852        H  0.23690607  0.90410573  0.99544161     0.38500
O853        O  0.22014558  0.86595173  0.00002807    -1.09700
O854        O  0.15017759  0.77158903  0.02491388    -0.66400
Ni855      Ni  0.17085259  0.84631690  0.02416992     1.26300
O856        O  0.18422289  0.89119994  0.96279351    -0.66600
O857        O  0.20952949  0.92380714  0.02836730    -0.78900
C858        C  0.05625920  0.80736665  0.04089496     0.84500
O859        O  0.10986078  0.82651565  0.04462340    -0.66100
Ni860      Ni  0.28150573  0.86736331  0.00949895     1.27400
Ni861      Ni  0.16303247  0.82396817  0.97879180     1.26100
H862        H  0.09057633  0.78624113  0.00193652     0.39100
O863        O  0.45512610  0.65873313  0.22570935    -0.74400
O864        O  0.07028006  0.73366839  0.27235299    -0.74400
O865        O  0.06788697  0.73633307  0.22579908    -0.74500
O866        O  0.45739204  0.65646751  0.27168052    -0.74600
O867        O  0.47547850  0.59124456  0.27175567    -0.74500
O868        O  0.08411024  0.66985074  0.22517661    -0.74500
O869        O  0.08804332  0.66840255  0.27078619    -0.74400
O870        O  0.47145755  0.59232616  0.22539650    -0.74500
Ni871      Ni  0.01218565  0.69876259  0.24891426     1.25400
Ni872      Ni  0.03010565  0.62793642  0.24825705     1.25400
C873        C  0.44797882  0.61554163  0.21682805     0.87800
C874        C  0.09576834  0.71148215  0.27995486     0.87700
C875        C  0.09130096  0.71436391  0.21706626     0.87700
C876        C  0.45199832  0.61328240  0.28037170     0.87900
O877        O  0.30228134  0.85224577  0.27370146    -0.74400
O878        O  0.32811026  0.77874155  0.22799466    -0.74400
O879        O  0.32999465  0.77845857  0.27399188    -0.74500
O880        O  0.30076024  0.85228301  0.22739148    -0.74600
O881        O  0.39401561  0.92123274  0.22745055    -0.74500
O882        O  0.42330749  0.84757051  0.27379148    -0.74500
O883        O  0.42141486  0.84790361  0.22848520    -0.74400
O884        O  0.39557540  0.92104470  0.27423502    -0.74500
Ni885      Ni  0.31190027  0.81307802  0.25080141     1.25400
Ni886      Ni  0.41176825  0.88728211  0.25101700     1.25400
C887        C  0.34560384  0.89617769  0.28272525     0.87800
C888        C  0.37864540  0.80225258  0.22031213     0.87700
C889        C  0.38121769  0.80155909  0.28177515     0.87700
C890        C  0.34385490  0.89576313  0.21830594     0.87900
C891        C  0.28926137  0.52900512  0.43686248     0.02300
C892        C  0.26479789  0.97768915  0.43857665     0.02300
C893        C  0.25454042  0.94892313  0.41813923    -0.18300
C894        C  0.28270139  0.97713398  0.39841939     0.02300
C895        C  0.29781033  0.52394135  0.39625999     0.02300
C896        C  0.30531118  0.55445936  0.41540610    -0.18300
H897        H  0.32680287  0.59915499  0.41351601     0.04300
H898        H  0.22415281  0.90397316  0.41746205     0.04300
O899        O  0.16448287  0.96908768  0.27135135    -0.74400
O900        O  0.22462406  0.58176783  0.22642195    -0.74400
O901        O  0.22872825  0.58068276  0.27275312    -0.74500
O902        O  0.16241723  0.97461969  0.22596993    -0.74600
O903        O  0.07865166  0.96527862  0.22607880    -0.74500
O904        O  0.13937883  0.55816234  0.27358144    -0.74500
O905        O  0.13576315  0.56042880  0.22734041    -0.74400
O906        O  0.08015882  0.95856354  0.27173404    -0.74500
Ni907      Ni  0.20954665  0.52829331  0.24948371     1.25400
Ni908      Ni  0.10356772  0.01668746  0.25021758     1.25400
C909        C  0.11459203  0.94667346  0.27944583     0.87800
C910        C  0.18459311  0.58517039  0.21798996     0.87700
C911        C  0.19000986  0.58276966  0.28218321     0.87700
C912        C  0.11211714  0.95420849  0.21773739     0.87900
C913        C  0.29308486  0.53341677  0.05782513     0.02300
C914        C  0.27810021  0.97721748  0.05755139     0.02300
C915        C  0.26698708  0.94761602  0.07797155    -0.18300
C916        C  0.28318446  0.97473155  0.09865557     0.02300
C917        C  0.29191313  0.52695059  0.09885631     0.02300
C918        C  0.29866777  0.55652222  0.07909197    -0.18300
H919        H  0.31274556  0.59963175  0.08039081     0.04300
H920        H  0.24601098  0.90275863  0.07779408     0.04300
C921        C  0.19666608  0.71598315  0.44604636     0.02300
C922        C  0.22239418  0.68604879  0.44693910     0.02300
C923        C  0.21688050  0.65527173  0.42778643    -0.18300
C924        C  0.19209611  0.65903401  0.40759212     0.02300
C925        C  0.17589615  0.69671837  0.40591683     0.02300
C926        C  0.17558308  0.72201536  0.42529772    -0.18300
H927        H  0.15872379  0.74729610  0.42398915     0.04300
H928        H  0.23466409  0.63076391  0.42814121     0.04300
C929        C  0.19002812  0.68715354  0.05302841     0.02300
C930        C  0.17370329  0.72525900  0.05137659     0.02300
C931        C  0.15392748  0.73593715  0.07065340    -0.18300
C932        C  0.15148038  0.71129091  0.09131887     0.02300
C933        C  0.16302012  0.67021821  0.09263367     0.02300
C934        C  0.18280545  0.65915042  0.07364983    -0.18300
H935        H  0.19312212  0.62863564  0.07504080     0.04300
H936        H  0.14506054  0.76756933  0.07009131     0.04300
C937        C  0.48316848  0.77288212  0.44284148     0.02300
C938        C  0.04355319  0.81252484  0.44137894     0.02300
C939        C  0.06712746  0.83360670  0.42016948    -0.18300
C940        C  0.03208749  0.81690967  0.40093446     0.02300
C941        C  0.47327842  0.77348634  0.40221945     0.02300
C942        C  0.44984240  0.75143940  0.42309195    -0.18300
H943        H  0.40375540  0.72113597  0.42407030     0.04300
H944        H  0.11252339  0.86621100  0.41880456     0.04300
C945        C  0.01930008  0.78890138  0.06079816     0.02300
C946        C  0.45914989  0.74665724  0.06076665     0.02300
C947        C  0.42901799  0.73466302  0.08088895    -0.18300
C948        C  0.45516422  0.76658179  0.10001174     0.02300
C949        C  0.01331684  0.81127172  0.09941466     0.02300
C950        C  0.04543554  0.82015550  0.08051388    -0.18300
H951        H  0.09032052  0.85478327  0.08067118     0.04300
H952        H  0.38364534  0.70157335  0.08147005     0.04300
C953        C  0.09930827  0.91247857  0.29980922    -0.05200
C954        C  0.12034435  0.87977439  0.30439162    -0.05200
C955        C  0.11365234  0.85578841  0.32565570    -0.23300
C956        C  0.08750434  0.86571377  0.34267538     0.18900
C957        C  0.06608350  0.89847599  0.33794500     0.16100
C958        C  0.07094751  0.92041658  0.31648656    -0.18400
C959        C  0.04088845  0.90966378  0.35482718    -0.20200
C960        C  0.03511562  0.88698479  0.37611389    -0.12800
C961        C  0.05354452  0.85211160  0.38068245     0.03900
C962        C  0.08146347  0.84290680  0.36421575    -0.24900
H963        H  0.14333213  0.87418105  0.29177526     0.09000
H964        H  0.13115799  0.83167545  0.32908127     0.12600
H965        H  0.05562783  0.94658536  0.31315328     0.12500
H966        H  0.02432882  0.93469666  0.35141941     0.12300
H967        H  0.01285698  0.89363448  0.38870963     0.12800
H968        H  0.59523048  0.81562701  0.36781423     0.14800
C969        C  0.03857549  0.85161750  0.11787960    -0.05200
C970        C  0.02010887  0.88659578  0.12097077    -0.05200
C971        C  0.02985205  0.91318168  0.14144091    -0.23300
C972        C  0.05741054  0.90425869  0.15911325     0.18900
C973        C  0.07773487  0.87052772  0.15572193     0.16100
C974        C  0.06975546  0.84587427  0.13486628    -0.18400
C975        C  0.10436172  0.86076928  0.17342498    -0.20200
C976        C  0.11329467  0.88613274  0.19407763    -0.12800
C977        C  0.09453163  0.92064750  0.19741668     0.03900
C978        C  0.06542437  0.92869753  0.18006706    -0.24900
H979        H  0.49516086  0.89056133  0.10796450     0.09000
H980        H  0.51406703  0.93894918  0.14371354     0.12600
H981        H  0.08390906  0.81895977  0.13234587     0.12500
H982        H  0.12044343  0.83544641  0.17103202     0.12300
H983        H  0.13624092  0.87998621  0.20728426     0.12800
H984        H  0.05151106  0.95598198  0.18255379     0.14800
C985        C  0.20130032  0.60627769  0.30495207    -0.05200
C986        C  0.25704080  0.63580815  0.31430633    -0.05200
C987        C  0.26594820  0.64516506  0.33739187    -0.23300
C988        C  0.21974099  0.62639122  0.35149948     0.18900
C989        C  0.16352187  0.59691273  0.34224502     0.16100
C990        C  0.15475328  0.58786817  0.31907399    -0.18400
C991        C  0.11692118  0.57667627  0.35635338    -0.20200
C992        C  0.12640040  0.59015309  0.37906425    -0.12800
C993        C  0.18254326  0.62456333  0.38790044     0.03900
C994        C  0.22894919  0.63897346  0.37449232    -0.24900
H995        H  0.29350174  0.64881714  0.30398489     0.09000
H996        H  0.30867021  0.66491402  0.34439906     0.12600
H997        H  0.11130652  0.56368600  0.31226615     0.12500
H998        H  0.07340453  0.55299547  0.34963734     0.12300
H999        H  0.09019335  0.57878259  0.38924778     0.12800
H1000       H  0.27228750  0.66562030  0.38125509     0.14800
C1001       C  0.19187169  0.61106124  0.19554854    -0.05200
C1002       C  0.24457291  0.63715023  0.18468100    -0.05200
C1003       C  0.24826484  0.64920107  0.16172801    -0.23300
C1004       C  0.19990653  0.63689559  0.14925440     0.18900
C1005       C  0.14676145  0.61128751  0.16001812     0.16100
C1006       C  0.14321396  0.59918602  0.18307792    -0.18400
C1007       C  0.09784392  0.59730086  0.14743865    -0.20200
C1008       C  0.10228268  0.61146779  0.12470159    -0.12800
C1009       C  0.15575103  0.64045420  0.11421202     0.03900
C1010       C  0.20405447  0.65091692  0.12634052    -0.24900
H1011       H  0.28243029  0.64550077  0.19363543     0.09000
H1012       H  0.28848991  0.66618610  0.15352323     0.12600
H1013       H  0.10187114  0.57792520  0.19100851     0.12500
H1014       H  0.05652426  0.57695130  0.15531126     0.12300
H1015       H  0.06462579  0.60320494  0.11560362     0.12800
H1016       H  0.24543474  0.67356900  0.11838631     0.14800
C1017       C  0.43454292  0.75977656  0.38255879    -0.05200
C1018       C  0.39547079  0.77469924  0.38284180    -0.05200
C1019       C  0.37255585  0.78021885  0.36282156    -0.23300
C1020       C  0.38904202  0.77147466  0.34232092     0.18900
C1021       C  0.42503218  0.75239106  0.34197847     0.16100
C1022       C  0.44594049  0.74475317  0.36224468    -0.18400
C1023       C  0.44267151  0.74520384  0.32136734    -0.20200
C1024       C  0.42692960  0.75941330  0.30133922    -0.12800
C1025       C  0.39140359  0.77843347  0.30176556     0.03900
C1026       C  0.37145293  0.78304330  0.32216690    -0.24900
H1027       H  0.38640612  0.78653747  0.39838613     0.09000
H1028       H  0.34460914  0.79435950  0.36330026     0.12600
H1029       H  0.47581965  0.73287351  0.36210683     0.12500
H1030       H  0.47069427  0.73115708  0.32081826     0.12300
H1031       H  0.44327135  0.75664941  0.28560492     0.12800
H1032       H  0.34508764  0.79896697  0.32237696     0.14800
C1033       C  0.38736603  0.77954427  0.20047772    -0.05200
C1034       C  0.42541589  0.76346650  0.20125526    -0.05200
C1035       C  0.43960146  0.74938286  0.18153680    -0.23300
C1036       C  0.41779188  0.75367579  0.16077094     0.18900
C1037       C  0.37958229  0.77013147  0.15991301     0.16100
C1038       C  0.36344947  0.78153352  0.17988411    -0.18400
C1039       C  0.35965787  0.77656980  0.13905695    -0.20200
C1040       C  0.38030916  0.77014247  0.11920667    -0.12800
C1041       C  0.42068823  0.75684616  0.12002002     0.03900
C1042       C  0.43662102  0.74555063  0.14079014    -0.24900
H1043       H  0.44483429  0.76278922  0.21705472     0.09000
H1044       H  0.46947558  0.73750725  0.18242211     0.12600
H1045       H  0.33504572  0.79520643  0.17934304     0.12500
H1046       H  0.33007618  0.78883728  0.13812653     0.12300
H1047       H  0.36780477  0.77922975  0.10329645     0.12800
H1048       H  0.46773138  0.73544932  0.14140536     0.14800
C1049       C  0.33958852  0.91234584  0.30520813    -0.05200
C1050       C  0.37205227  0.91040533  0.32295228    -0.05200
C1051       C  0.36040102  0.91383406  0.34520201    -0.23300
C1052       C  0.31799149  0.92234565  0.35014189     0.18900
C1053       C  0.28737604  0.92788089  0.33237134     0.16100
C1054       C  0.29689568  0.92085572  0.30998412    -0.18400
C1055       C  0.24910091  0.94190710  0.33733666    -0.20200
C1056       C  0.24196412  0.95131100  0.35952214    -0.12800
C1057       C  0.27292139  0.94674910  0.37719339     0.03900
C1058       C  0.30882066  0.92957007  0.37246736    -0.24900
H1059       H  0.40484247  0.90345363  0.31961502     0.09000
H1060       H  0.38529621  0.91079588  0.35852643     0.12600
H1061       H  0.27159771  0.92229804  0.29637630     0.12500
H1062       H  0.22743978  0.94904633  0.32394687     0.12300
H1063       H  0.21574945  0.96650455  0.36273306     0.12800
H1064       H  0.33459501  0.92828396  0.38591804     0.14800
C1065       C  0.27409062  0.94328130  0.11982684    -0.05200
C1066       C  0.23702985  0.94036376  0.13577605    -0.05200
C1067       C  0.24201846  0.92913564  0.15829414    -0.23300
C1068       C  0.28395890  0.92056961  0.16526383     0.18900
C1069       C  0.32034047  0.92185090  0.14914436     0.16100
C1070       C  0.31378428  0.93118146  0.12641239    -0.18400
C1071       C  0.36546297  0.91807531  0.15623531    -0.20200
C1072       C  0.37478425  0.91368049  0.17903536    -0.12800
C1073       C  0.33780182  0.91050606  0.19513443     0.03900
C1074       C  0.29169004  0.91300022  0.18814358    -0.24900
H1075       H  0.20745687  0.95134791  0.13109548     0.09000
H1076       H  0.21622800  0.93147219  0.17053983     0.12600
H1077       H  0.34376666  0.93535512  0.11428173     0.12500
H1078       H  0.39427990  0.91967850  0.14420808     0.12300
H1079       H  0.40972911  0.91033998  0.18406524     0.12800
H1080       H  0.26262400  0.90987716  0.20046693     0.14800
C1081       C  0.31950763  0.55272406  0.37450172    -0.05200
C1082       C  0.28082921  0.54345543  0.35705274    -0.05200
C1083       C  0.29888345  0.55536562  0.33482479    -0.23300
C1084       C  0.35527872  0.57463571  0.32976117     0.18900
C1085       C  0.39413385  0.58385098  0.34741868     0.16100
C1086       C  0.37693503  0.57616701  0.36970662    -0.18400
C1087       C  0.44804589  0.59613422  0.34249232    -0.20200
C1088       C  0.46374786  0.60007162  0.32028791    -0.12800
C1089       C  0.42737087  0.59528151  0.30269020     0.03900
C1090       C  0.37313268  0.58292821  0.30741629    -0.24900
H1091       H  0.23608963  0.52421608  0.36055357     0.09000
H1092       H  0.26795204  0.54629190  0.32153682     0.12600
H1093       H  0.41172034  0.03873659  0.38274108     0.12500
H1094       H  0.47743723  0.60117007  0.35579345     0.12300
H1095       H  0.50580395  0.60977921  0.31684404     0.12800
H1096       H  0.34498892  0.57917477  0.29380804     0.14800
C1097       C  0.42221820  0.59894685  0.19420518    -0.05200
C1098       C  0.45649540  0.59964473  0.17753470    -0.05200
C1099       C  0.44051546  0.59510165  0.15504029    -0.23300
C1100       C  0.38811131  0.58623473  0.14885828     0.18900
C1101       C  0.35087789  0.58113976  0.16552863     0.16100
C1102       C  0.36935176  0.59012665  0.18820090    -0.18400
C1103       C  0.29534924  0.56492897  0.15917118    -0.20200
C1104       C  0.31589135  0.07913795  0.13524918    -0.12800
C1105       C  0.31385743  0.55702577  0.12035906     0.03900
C1106       C  0.37061909  0.57777184  0.12633668    -0.24900
H1107       H  0.49749702  0.60672185  0.18186336     0.09000
H1108       H  0.46859021  0.59715970  0.14250864     0.19200
H1109       H  0.34260429  0.58922642  0.20105595     0.12500
H1110       H  0.31434643  0.10333949  0.16892557     0.12300
H1111       H  0.27900692  0.07883936  0.12976387     0.12800
H1112       H  0.39881419  0.58019192  0.11373684     0.14800
C1113       C  0.12828194  0.73009075  0.30132563    -0.05200
C1114       C  0.18159962  0.73756972  0.30348653    -0.05200
C1115       C  0.20499303  0.73981240  0.32474446    -0.23300
C1116       C  0.17395577  0.73160371  0.34408604     0.18900
C1117       C  0.12054333  0.72465327  0.34203357     0.16100
C1118       C  0.09909015  0.72599185  0.32070025    -0.18400
C1119       C  0.08777542  0.71278864  0.36119023    -0.20200
C1120       C  0.10611397  0.70456503  0.38197111    -0.12800
C1121       C  0.15851060  0.70997135  0.38412264     0.03900
C1122       C  0.19365241  0.72668338  0.36527086    -0.24900
H1123       H  0.20382632  0.73910734  0.28872161     0.09000
H1124       H  0.24531488  0.74391312  0.32600500     0.12600
H1125       H  0.05714691  0.71865325  0.31907027     0.12500
H1126       H  0.04678909  0.70746287  0.35992417     0.12300
H1127       H  0.07859853  0.69246556  0.39626696     0.12800
H1128       H  0.23523140  0.73341995  0.36692823     0.14800
C1129       C  0.13956342  0.73023964  0.11191579    -0.05200
C1130       C  0.08470982  0.71772762  0.11501692    -0.05200
C1131       C  0.06749947  0.71962603  0.13644397    -0.23300
C1132       C  0.10476010  0.73394166  0.15499648     0.18900
C1133       C  0.16114180  0.74935540  0.15183595     0.16100
C1134       C  0.17897927  0.74979208  0.13011576    -0.18400
C1135       C  0.19665540  0.75875761  0.17058552    -0.20200
C1136       C  0.17526580  0.74997000  0.19227327    -0.12800
C1137       C  0.11945299  0.73512215  0.19541396     0.03900
C1138       C  0.08514310  0.72898965  0.17676036    -0.24900
H1139       H  0.05381023  0.70225949  0.10121650     0.09000
H1140       H  0.02386316  0.70629335  0.13868846     0.12600
H1141       H  0.22144050  0.75940368  0.12767111     0.12500
H1142       H  0.23956920  0.76945709  0.16842559     0.12300
H1143       H  0.20155904  0.75325350  0.20651392     0.12800
H1144       H  0.04150720  0.71610831  0.17920733     0.14800
C1145       C  0.34115535  0.77073960  0.88841652    -0.05200
C1146       C  0.32572240  0.71969431  0.87945277    -0.05200
C1147       C  0.34071193  0.71778282  0.85745859    -0.23300
C1148       C  0.36805456  0.76600072  0.84394222     0.18900
C1149       C  0.38664044  0.81758319  0.85379222     0.16100
C1150       C  0.37707632  0.82002116  0.87636424    -0.18400
C1151       C  0.40915581  0.86526899  0.84056167    -0.20200
C1152       C  0.41231820  0.86207276  0.81761850    -0.12800
C1153       C  0.39608387  0.81184109  0.80735700     0.03900
C1154       C  0.37478440  0.76368289  0.82070503    -0.24900
H1155       H  0.29888873  0.68119361  0.88878886     0.09000
H1156       H  0.32771841  0.67830607  0.85062540     0.12600
H1157       H  0.38979835  0.85950769  0.88354397     0.12500
H1158       H  0.42234130  0.90476026  0.84783127     0.12300
H1159       H  0.42972223  0.90017394  0.80796094     0.12800
H1160       H  0.36197387  0.72475403  0.81301280     0.14800
C1161       C  0.08731028  0.91750030  0.79789114    -0.05200
C1162       C  0.13094021  0.90887779  0.80092796    -0.05200
C1163       C  0.15417606  0.91241915  0.82230151    -0.23300
C1164       C  0.13279070  0.92269361  0.84099567     0.18900
C1165       C  0.08920817  0.93192990  0.83794380     0.16100
C1166       C  0.06791020  0.93071777  0.81637626    -0.18400
C1167       C  0.06727204  0.94181082  0.85653138    -0.20200
C1168       C  0.09112600  0.94644659  0.87778656    -0.12800
C1169       C  0.13688000  0.94094175  0.88074578     0.03900
C1170       C  0.15556176  0.92599461  0.86256757    -0.24900
H1171       H  0.14557436  0.89750701  0.78687949     0.09000
H1172       H  0.18781625  0.90584470  0.82430305     0.12600
H1173       H  0.03351921  0.93639680  0.81416635     0.12500
H1174       H  0.03347897  0.94839308  0.85450649     0.12300
H1175       H  0.07681569  0.95851803  0.89171561     0.12800
H1176       H  0.19097231  0.92187691  0.86492491     0.14800
C1177       C  0.16509001  0.94451369  0.62067270    -0.05200
C1178       C  0.16428379  0.90109929  0.63167369    -0.05200
C1179       C  0.13659991  0.88050138  0.65214321    -0.23300
C1180       C  0.11070449  0.90372845  0.66197786     0.18900
C1181       C  0.10934247  0.94574848  0.65040858     0.16100
C1182       C  0.13407882  0.96386547  0.62935970    -0.18400
C1183       C  0.08590539  0.97100936  0.66053373    -0.20200
C1184       C  0.06399165  0.95475583  0.68200401    -0.12800
C1185       C  0.06400045  0.91210040  0.69354550     0.03900
C1186       C  0.08724963  0.88649784  0.68336903    -0.24900
H1187       H  0.18703855  0.88499903  0.62489835     0.09000
H1188       H  0.13705983  0.84805865  0.66088181     0.12600
H1189       H  0.13348172  0.99648116  0.62055981     0.12500
H1190       H  0.08523278  0.00383648  0.65199373     0.12300
H1191       H  0.04573618  0.97484041  0.68934240     0.12800
H1192       H  0.08750820  0.85365721  0.69211851     0.14800
C1193       C  0.36199299  0.78374756  0.69761356    -0.05200
C1194       C  0.30665954  0.77020460  0.69359129    -0.05200
C1195       C  0.28512379  0.76235028  0.67157129    -0.23300
C1196       C  0.32006314  0.77151040  0.65341984     0.18900
C1197       C  0.37610901  0.78576572  0.65748834     0.16100
C1198       C  0.39575500  0.78952562  0.67957584    -0.18400
C1199       C  0.41296358  0.79997307  0.63949034    -0.20200
C1200       C  0.39564516  0.80372558  0.61774998    -0.12800
C1201       C  0.34067964  0.79145745  0.61370190     0.03900
C1202       C  0.30174398  0.77131625  0.63135372    -0.24900
H1203       H  0.28094544  0.76725784  0.70733805     0.09000
H1204       H  0.24249873  0.75249472  0.66865914     0.12600
H1205       H  0.43929584  0.80173145  0.68273553     0.12500
H1206       H  0.45618066  0.81116652  0.64238860     0.12300
H1207       H  0.42594873  0.81860367  0.60428107     0.12800
H1208       H  0.25853577  0.75972484  0.62809198     0.14800
C1209       C  0.04682006  0.72250968  0.87884623    -0.05200
C1210       C  0.08564222  0.77252492  0.86740349    -0.05200
C1211       C  0.10736569  0.77175412  0.84658256    -0.23300
C1212       C  0.08897302  0.72083950  0.83642842     0.18900
C1213       C  0.05158682  0.67066845  0.84829891     0.16100
C1214       C  0.03353234  0.67213094  0.86980408    -0.18400
C1215       C  0.03035004  0.61946159  0.83808762    -0.20200
C1216       C  0.04536919  0.61763870  0.81623645    -0.12800
C1217       C  0.08371098  0.66689094  0.80419279     0.03900
C1218       C  0.10608011  0.71878774  0.81456900    -0.24900
H1219       H  0.59714204  0.81187036  0.87414245     0.09000
H1220       H  0.13656021  0.81073451  0.83798273     0.12600
H1221       H  0.00507066  0.63337929  0.87877383     0.12500
H1222       H  0.00108064  0.58058971  0.84685679     0.12300
H1223       H  0.02800062  0.57712203  0.80896427     0.12800
H1224       H  0.13574109  0.75715661  0.80558550     0.14800
C1225       C  0.18849034  0.58498231  0.80030658    -0.05200
C1226       C  0.24288415  0.59704546  0.80534867    -0.05200
C1227       C  0.25609623  0.58870422  0.82711474    -0.23300
C1228       C  0.21629893  0.57117684  0.84426490     0.18900
C1229       C  0.16129575  0.55878361  0.83912177     0.16100
C1230       C  0.14751303  0.56484314  0.81710940    -0.18400
C1231       C  0.12087224  0.54027963  0.85603256    -0.20200
C1232       C  0.13368292  0.53079565  0.87764113    -0.12800
C1233       C  0.18728112  0.54065971  0.88261642     0.03900
C1234       C  0.22959621  0.56368597  0.86625543    -0.24900
H1235       H  0.27507876  0.61329796  0.79254885     0.09000
H1236       H  0.29767317  0.59685867  0.83062141     0.12600
H1237       H  0.10573749  0.55649963  0.81323667     0.12500
H1238       H  0.07862503  0.53088574  0.85232128     0.12300
H1239       H  0.19083245  0.10250936  0.89618965     0.12800
H1240       H  0.27082864  0.57087350  0.87018032     0.14800
C1241       C  0.24616441  0.56655696  0.62037396    -0.05200
C1242       C  0.23385326  0.60681201  0.61806360    -0.05200
C1243       C  0.22373214  0.62744499  0.63691232    -0.23300
C1244       C  0.22489285  0.60769807  0.65842539     0.18900
C1245       C  0.24009672  0.56945819  0.66114992     0.16100
C1246       C  0.25345961  0.55130081  0.64218652    -0.18400
C1247       C  0.23776771  0.54721071  0.68257275    -0.20200
C1248       C  0.21972636  0.56219031  0.70100275    -0.12800
C1249       C  0.20498840  0.60051474  0.69837523     0.03900
C1250       C  0.20826319  0.62341331  0.67708956    -0.24900
H1251       H  0.22777342  0.61926852  0.60159223     0.09000
H1252       H  0.21131965  0.65613120  0.63453685     0.12600
H1253       H  0.26409936  0.52114696  0.64424026     0.12500
H1254       H  0.24821788  0.51698741  0.68493502     0.12300
H1255       H  0.21678594  0.54353372  0.71726202     0.12800
H1256       H  0.19551965  0.65165962  0.67487854     0.14800
C1257       C  0.06031437  0.73351748  0.61889564    -0.05200
C1258       C  0.09914168  0.71824322  0.61862275    -0.05200
C1259       C  0.11857736  0.70818080  0.63857757    -0.23300
C1260       C  0.09866352  0.71219292  0.65914278     0.18900
C1261       C  0.06261870  0.73102423  0.65986108     0.16100
C1262       C  0.04604026  0.74439093  0.63968888    -0.18400
C1263       C  0.04138279  0.73298741  0.68060678    -0.20200
C1264       C  0.05541887  0.71575835  0.70034160    -0.12800
C1265       C  0.09176092  0.69773565  0.69947108     0.03900
C1266       C  0.11354544  0.69665657  0.67895285    -0.24900
H1267       H  0.11104022  0.70975537  0.60295164     0.09000
H1268       H  0.14682294  0.69443043  0.63787603     0.12600
H1269       H  0.01740470  0.75773981  0.64008422     0.12500
H1270       H  0.01288078  0.74641305  0.68145849     0.12300
H1271       H  0.03796406  0.71633958  0.71615765     0.12800
H1272       H  0.14090487  0.68209256  0.67840759     0.14800
C1273       C  0.38584662  0.57931525  0.79959286    -0.05200
C1274       C  0.41130711  0.63670844  0.79707934    -0.05200
C1275       C  0.42594974  0.67012423  0.81603415    -0.23300
C1276       C  0.41372475  0.64597646  0.83756113     0.18900
C1277       C  0.38651830  0.58775985  0.83994498     0.16100
C1278       C  0.37371465  0.55511503  0.82097099    -0.18400
C1279       C  0.37321702  0.56316749  0.86128248    -0.20200
C1280       C  0.38957023  0.59611726  0.88027997    -0.12800
C1281       C  0.42062483  0.65429655  0.87818937     0.03900
C1282       C  0.43016713  0.67897566  0.85679136    -0.24900
H1283       H  0.42041727  0.65559495  0.78053062     0.09000
H1284       H  0.44697770  0.71467256  0.81388819     0.12600
H1285       H  0.35431671  0.51083038  0.82279736     0.12500
H1286       H  0.35270571  0.51887475  0.86335816     0.12300
H1287       H  0.38240621  0.57661176  0.89665413     0.12800
H1288       H  0.45411217  0.72399994  0.85521667     0.14800
C1289       C  0.27577110  0.86713463  0.80045988    -0.05200
C1290       C  0.26640937  0.81436367  0.80114224    -0.05200
C1291       C  0.25606716  0.78568774  0.82163818    -0.23300
C1292       C  0.25888204  0.81116516  0.84187553     0.18900
C1293       C  0.26858183  0.86434514  0.84113800     0.16100
C1294       C  0.27460085  0.89075550  0.82044170    -0.18400
C1295       C  0.27609392  0.89212856  0.86112907    -0.20200
C1296       C  0.27864543  0.86971038  0.88164241    -0.12800
C1297       C  0.27016414  0.81717209  0.88288165     0.03900
C1298       C  0.25631826  0.78647803  0.86283535    -0.24900
H1299       H  0.26834370  0.79597199  0.78591721     0.09000
H1300       H  0.24941245  0.74521377  0.82178599     0.12600
H1301       H  0.28266766  0.93174192  0.81998286     0.12500
H1302       H  0.28342521  0.93282534  0.86081174     0.12300
H1303       H  0.28955180  0.89484666  0.89649328     0.12800
H1304       H  0.24763738  0.74519063  0.86339471     0.14800
C1305       C  0.43382199  0.66002401  0.61873290    -0.05200
C1306       C  0.40003923  0.67304633  0.62990504    -0.05200
C1307       C  0.38231164  0.65382097  0.65190001    -0.23300
C1308       C  0.39794927  0.62106984  0.66291868     0.18900
C1309       C  0.43083528  0.60703161  0.65133003     0.16100
C1310       C  0.44599018  0.62418797  0.62908512    -0.18400
C1311       C  0.45130285  0.57899970  0.66252587    -0.20200
C1312       C  0.43782739  0.56312787  0.68481697    -0.12800
C1313       C  0.40134749  0.57250673  0.69622064     0.03900
C1314       C  0.38209424  0.60245420  0.68526498    -0.24900
H1315       H  0.38980346  0.70014686  0.62199098     0.09000
H1316       H  0.35783243  0.66584437  0.66047566     0.12600
H1317       H  0.47218585  0.61418399  0.62047607     0.12500
H1318       H  0.47833514  0.56982419  0.65410065     0.12300
H1319       H  0.45403211  0.54090935  0.69282690     0.12800
H1320       H  0.35525292  0.61123578  0.69406329     0.14800
C1321       C  0.29686582  0.88796309  0.69373987    -0.05200
C1322       C  0.24108617  0.85413877  0.68464676    -0.05200
C1323       C  0.23242268  0.84353433  0.66158564    -0.23300
C1324       C  0.27877024  0.86827607  0.64707226     0.18900
C1325       C  0.33505403  0.90247846  0.65605200     0.16100
C1326       C  0.34372388  0.91089901  0.67931790    -0.18400
C1327       C  0.38169226  0.92685759  0.64163804    -0.20200
C1328       C  0.37269479  0.91364523  0.61883875    -0.12800
C1329       C  0.31700036  0.87605037  0.61006278     0.03900
C1330       C  0.26992826  0.85643549  0.62396141    -0.24900
H1331       H  0.20426979  0.83655211  0.69531445     0.09000
H1332       H  0.18955734  0.81618722  0.65491777     0.12600
H1333       H  0.38699811  0.93729734  0.68609304     0.12500
H1334       H  0.42520887  0.95358374  0.64818796     0.12300
H1335       H  0.40950363  0.92847438  0.60844662     0.12800
H1336       H  0.22698530  0.82651066  0.61739331     0.14800
O1337       O  0.70407537  0.16811137  0.01423121    -0.80900
O1338       O  0.87225388  0.16880788  0.95471847    -0.65600
O1339       O  0.76246532  0.12622758  0.99988948    -1.12200
C1340       C  0.93266059  0.21668765  0.04098611     1.06000
O1341       O  0.94742915  0.18688707  0.97725331    -0.78800
O1342       O  0.86190057  0.08459391  0.02642397    -0.66400
Ni1343     Ni  0.70027921  0.12186702  0.98973359     1.34900
C1344       C  0.82097213  0.07443037  0.03865888     0.84700
O1345       O  0.77801670  0.07072957  0.97252441    -0.79300
O1346       O  0.69840289  0.07173701  0.96655138    -0.89600
C1347       C  0.92602289  0.18867195  0.95797577     0.84300
O1348       O  0.73941502  0.18713228  0.96987403    -0.67800
O1349       O  0.94845975  0.19533796  0.02644307    -0.87100
C1350       C  0.79250830  0.22541943  0.96677830     0.85100
C1351       C  0.72803252  0.05043390  0.96337988     1.06700
H1352       H  0.89251955  0.20809919  0.99771699     0.38500
O1353       O  0.86385485  0.16867371  0.99986946    -1.09700
O1354       O  0.79925886  0.10239104  0.03726185    -0.66400
Ni1355     Ni  0.81888333  0.16899252  0.02104470     1.26300
O1356       O  0.83149461  0.22112244  0.97511875    -0.66600
O1357       O  0.88366627  0.21040951  0.04066551    -0.78900
C1358       C  0.72673190  0.17745267  0.03418680     0.84500
O1359       O  0.76805069  0.17293426  0.03984583    -0.66100
Ni1360     Ni  0.90505656  0.13836061  0.00282503     1.27400
Ni1361     Ni  0.81207066  0.14720867  0.97575462     1.26100
H1362       H  0.74663028  0.08830498  0.00462800     0.39100
O1363       O  0.82481261  0.05337506  0.47832306    -0.80900
O1364       O  0.81954455  0.21991847  0.53864897    -0.65600
O1365       O  0.83382239  0.13170048  0.49975859    -1.12200
C1366       C  0.95076867  0.26520760  0.46317767     1.06000
O1367       O  0.82998776  0.28631174  0.51424184    -0.78800
O1368       O  0.80609298  0.24727389  0.47022075    -0.66400
Ni1369     Ni  0.87134365  0.09784342  0.50412756     1.34900
C1370       C  0.76918887  0.19522147  0.46630046     0.84700
O1371       O  0.78802726  0.11062604  0.54010537    -0.79300
O1372       O  0.81322406  0.05341251  0.52738657    -0.89600
C1373       C  0.81921907  0.26273940  0.53380534     0.84300
O1374       O  0.92416888  0.14413899  0.52788688    -0.67800
O1375       O  0.92519493  0.29068280  0.46583436    -0.87100
C1376       C  0.92914513  0.18229672  0.53978947     0.85100
C1377       C  0.78745915  0.06595837  0.54126661     1.06700
H1378       H  0.91092962  0.24612874  0.50483912     0.38500
O1379       O  0.87190765  0.22919721  0.49963050    -1.09700
O1380       O  0.77729659  0.15855371  0.47329397    -0.66400
Ni1381     Ni  0.85487895  0.18145429  0.47558604     1.26300
O1382       O  0.89581240  0.19785063  0.53775594    -0.66600
O1383       O  0.93438980  0.21876211  0.47323882    -0.78900
C1384       C  0.82239233  0.07262922  0.45881074     0.84500
O1385       O  0.83813190  0.12347479  0.45516586    -0.66100
Ni1386     Ni  0.87496351  0.28862981  0.48929312     1.27400
Ni1387     Ni  0.82804180  0.17335703  0.52034332     1.26100
H1388       H  0.79410726  0.10168100  0.49704726     0.39100
O1389       O  0.76587612  0.41385233  0.72510344    -0.74400
O1390       O  0.83154658  0.03297558  0.76985388    -0.74400
O1391       O  0.83637181  0.03148730  0.72429120    -0.74500
O1392       O  0.76088224  0.41368931  0.77140636    -0.74600
O1393       O  0.83969891  0.41396712  0.77268724    -0.74500
O1394       O  0.91671617  0.03494437  0.72867195    -0.74500
O1395       O  0.90974131  0.03252432  0.77408340    -0.74400
O1396       O  0.84876163  0.42149860  0.72704815    -0.74500
Ni1397     Ni  0.79104899  0.46945047  0.74761644     1.25400
Ni1398     Ni  0.87725728  0.47325371  0.75124137     1.25400
C1399       C  0.80096443  0.40451889  0.71706416     0.87800
C1400       C  0.87981339  0.05067138  0.77948756     0.87700
C1401       C  0.88660737  0.04841867  0.71789344     0.87700
C1402       C  0.79027654  0.39646399  0.78006418     0.87900
O1403       O  0.65380806  0.08441658  0.72648159    -0.74400
O1404       O  0.58701154  0.11735348  0.77257439    -0.74400
O1405       O  0.58849271  0.12430914  0.72653071    -0.74500
O1406       O  0.65339317  0.07955397  0.77170536    -0.74600
O1407       O  0.73204038  0.16694956  0.77287424    -0.74500
O1408       O  0.66544407  0.21227631  0.72927804    -0.74500
O1409       O  0.66525172  0.20422199  0.77530077    -0.74400
O1410       O  0.73101131  0.17243999  0.72715956    -0.74500
Ni1411     Ni  0.61775922  0.09845086  0.74919659     1.25400
Ni1412     Ni  0.70122809  0.19222133  0.75112488     1.25400
C1413       C  0.70301333  0.12283695  0.71911991     0.87800
C1414       C  0.61641743  0.16424063  0.78277960     0.87700
C1415       C  0.61740329  0.17539556  0.72003341     0.87700
C1416       C  0.70260440  0.11672954  0.78015643     0.87900
O1417       O  0.55034135  0.42489096  0.77258265    -0.74400
O1418       O  0.92921889  0.36775641  0.72829572    -0.74400
O1419       O  0.93656576  0.36786007  0.77381076    -0.74500
O1420       O  0.54242314  0.42717073  0.72724893    -0.74600
O1421       O  0.53277300  0.34606232  0.72397138    -0.74500
O1422       O  0.93659717  0.29146807  0.77585351    -0.74500
O1423       O  0.91984481  0.28627983  0.72964121    -0.74400
O1424       O  0.54865821  0.34773328  0.76931499    -0.74500
Ni1425     Ni  0.48966973  0.39964329  0.75056199     1.25400
Ni1426     Ni  0.98398641  0.31471510  0.74962901     1.25400
C1427       C  0.56769590  0.39428142  0.77864386     0.87800
C1428       C  0.90792408  0.31875721  0.72066632     0.87700
C1429       C  0.92570093  0.32449170  0.78439662     0.87700
C1430       C  0.55130281  0.39534398  0.71672259     0.87900
C1431       C  0.96879160  0.20387584  0.55932614     0.02300
C1432       C  0.52860585  0.22927722  0.55859165     0.02300
C1433       C  0.56031302  0.24214761  0.57876981    -0.18300
C1434       C  0.53344823  0.22641482  0.59950362     0.02300
C1435       C  0.97353202  0.20073726  0.60018117     0.02300
C1436       C  0.94284203  0.19286725  0.58028918    -0.18300
H1437       H  0.89697469  0.17222983  0.58106569     0.04300
H1438       H  0.60612363  0.26112902  0.57829205     0.04300
C1439       C  0.72025822  0.47067140  0.56092532     0.02300
C1440       C  0.75910909  0.03066487  0.56140824     0.02300
C1441       C  0.77192759  0.05953270  0.58182666    -0.18300
C1442       C  0.74453633  0.03245591  0.60180545     0.02300
C1443       C  0.70390899  0.47403654  0.60069594     0.02300
C1444       C  0.69702760  0.44403664  0.58159454    -0.18300
H1445       H  0.66835688  0.39890223  0.58255553     0.04300
H1446       H  0.80213392  0.10440481  0.58205225     0.04300
C1447       C  0.78323408  0.29753471  0.94646300     0.02300
C1448       C  0.80708219  0.26623603  0.94849169     0.02300
C1449       C  0.83179958  0.26063982  0.92947820    -0.18300
C1450       C  0.82808925  0.28058452  0.90831830     0.02300
C1451       C  0.79650587  0.30461501  0.90557306     0.02300
C1452       C  0.77648232  0.31406469  0.92488954    -0.18300
H1453       H  0.75424903  0.33421117  0.92302037     0.04300
H1454       H  0.85176003  0.23815625  0.93086187     0.04300
C1455       C  0.78337202  0.31616507  0.55158360     0.02300
C1456       C  0.81135846  0.28862774  0.55301397     0.02300
C1457       C  0.83483252  0.28613964  0.57373979    -0.18300
C1458       C  0.83156896  0.31067249  0.59278058     0.02300
C1459       C  0.80913526  0.34315543  0.59087580     0.02300
C1460       C  0.78473785  0.34526619  0.57045185    -0.18300
H1461       H  0.76347247  0.36656427  0.56973779     0.04300
H1462       H  0.85522034  0.26404733  0.57529414     0.04300
C1463       C  0.71353569  0.01675999  0.94310679     0.02300
C1464       C  0.68837754  0.45754870  0.94250527     0.02300
C1465       C  0.67899929  0.43276503  0.92143104    -0.18300
C1466       C  0.67981480  0.45985563  0.90179422     0.02300
C1467       C  0.71249699  0.02382206  0.90238724     0.02300
C1468       C  0.73197207  0.04866880  0.92332804    -0.18300
H1469       H  0.75905963  0.09393623  0.92425260     0.04300
H1470       H  0.66539828  0.38970910  0.92034355     0.04300
C1471       C  0.96309089  0.21053119  0.93769496     0.02300
C1472       C  0.52411799  0.24525006  0.93831808     0.02300
C1473       C  0.55425705  0.25208158  0.91847183    -0.18300
C1474       C  0.52584410  0.22537518  0.89841019     0.02300
C1475       C  0.96550404  0.19612530  0.89729775     0.02300
C1476       C  0.93525763  0.18956072  0.91668331    -0.18300
H1477       H  0.88881463  0.16382015  0.91550789     0.04300
H1478       H  0.60072736  0.27688261  0.91875180     0.04300
O1479       O  0.67578600  0.21124309  0.48711625    -0.80900
O1480       O  0.68096218  0.38219006  0.54492093    -0.65600
O1481       O  0.63754444  0.27253961  0.50105495    -1.12200
C1482       C  0.73039539  0.43540453  0.45874387     1.06000
O1483       O  0.69821225  0.45337025  0.52153742    -0.78800
O1484       O  0.59358306  0.36504345  0.47313506    -0.66400
Ni1485     Ni  0.63163612  0.21167278  0.51175827     1.34900
C1486       C  0.58511840  0.32554185  0.46115442     0.84700
O1487       O  0.58054174  0.28887749  0.52803469    -0.79300
O1488       O  0.58363542  0.21311823  0.53524697    -0.89600
C1489       C  0.69985463  0.43387088  0.54106149     0.84300
O1490       O  0.70003579  0.25055221  0.53091652    -0.67800
O1491       O  0.70667760  0.45049982  0.47252796    -0.87100
C1492       C  0.73923495  0.30225437  0.53419023     0.85100
C1493       C  0.56185430  0.24195748  0.53818433     1.06700
H1494       H  0.72185615  0.39971410  0.50287619     0.38500
O1495       O  0.68144575  0.37136717  0.50048917    -1.09700
O1496       O  0.61578281  0.30664896  0.46279107    -0.66400
Ni1497     Ni  0.68315934  0.32705584  0.48013238     1.26300
O1498       O  0.73467457  0.34042597  0.52625330    -0.66600
O1499       O  0.72646343  0.38900542  0.46021750    -0.78900
C1500       C  0.68768867  0.23459850  0.46751483     0.84500
O1501       O  0.68822364  0.27775861  0.46229660    -0.66100
Ni1502     Ni  0.64889804  0.40987569  0.49628072     1.27400
Ni1503     Ni  0.65899672  0.32208696  0.52482229     1.26100
H1504       H  0.59874779  0.25755100  0.49603977     0.39100
O1505       O  0.54442556  0.30574541  0.02167113    -0.80900
O1506       O  0.72186669  0.31857215  0.96035256    -0.65600
O1507       O  0.62860059  0.32477346  0.99993728    -1.12200
C1508       C  0.76485833  0.44413926  0.03629653     1.06000
O1509       O  0.78860596  0.32592256  0.98496303    -0.78800
O1510       O  0.75489658  0.30774559  0.02967697    -0.66400
Ni1511     Ni  0.58695844  0.35449134  0.99660064     1.34900
C1512       C  0.70191648  0.26957336  0.03292946     0.84700
O1513       O  0.60842630  0.28078334  0.95949717    -0.79300
O1514       O  0.54453897  0.29803215  0.97254806    -0.89600
C1515       C  0.76298543  0.31380059  0.96545262     0.84300
O1516       O  0.63134517  0.40924593  0.97386733    -0.67800
O1517       O  0.79453245  0.42281002  0.03302151    -0.87100
C1518       C  0.67163294  0.41851780  0.96158204     0.85100
C1519       C  0.56013983  0.27552723  0.95847066     1.06700
H1520       H  0.74572471  0.40554341  0.99477388     0.38500
O1521       O  0.73016579  0.36782054  0.99970254    -1.09700
O1522       O  0.66267498  0.27394468  0.02482378    -0.66400
Ni1523     Ni  0.68109598  0.34760168  0.02382842     1.26300
O1524       O  0.69176629  0.38915958  0.96246724    -0.66600
O1525       O  0.71524245  0.42430667  0.02683120    -0.78900
C1526       C  0.56652228  0.30589033  0.04100531     0.84500
O1527       O  0.62047235  0.32642535  0.04446408    -0.66100
Ni1528     Ni  0.79280776  0.37266195  0.00964275     1.27400
Ni1529     Ni  0.67286771  0.32353337  0.97901128     1.26100
H1530       H  0.60023780  0.28533384  0.00224428     0.39100
O1531       O  0.97428902  0.15242401  0.22701793    -0.74400
O1532       O  0.58868526  0.23251143  0.27336001    -0.74400
O1533       O  0.58563939  0.23364877  0.22678619    -0.74500
O1534       O  0.97759782  0.15146039  0.27312900    -0.74600
O1535       O  0.99979363  0.08933083  0.27325132    -0.74500
O1536       O  0.60700015  0.17079505  0.22666180    -0.74500
O1537       O  0.61097116  0.17043119  0.27244247    -0.74400
O1538       O  0.99566111  0.08969313  0.22697645    -0.74500
Ni1539     Ni  0.53095735  0.19492394  0.25008620     1.25400
Ni1540     Ni  0.55397033  0.12776570  0.24982121     1.25400
C1541       C  0.96942097  0.11010090  0.21829838     0.87800
C1542       C  0.61519460  0.21193394  0.28155417     0.87700
C1543       C  0.61048740  0.21313125  0.21805454     0.87700
C1544       C  0.97438294  0.10933487  0.28193695     0.87900
O1545       O  0.80176787  0.35073589  0.27198563    -0.74400
O1546       O  0.82659297  0.27676095  0.22609115    -0.74400
O1547       O  0.82734788  0.27567167  0.27206970    -0.74500
O1548       O  0.80164158  0.35244754  0.22553236    -0.74600
O1549       O  0.89496939  0.42062002  0.22635000    -0.74500
O1550       O  0.92095896  0.34398394  0.27205510    -0.74500
O1551       O  0.92003973  0.34551802  0.22665400    -0.74400
O1552       O  0.89517735  0.41854323  0.27259023    -0.74500
Ni1553     Ni  0.81085600  0.31150219  0.24888148     1.25400
Ni1554     Ni  0.91095450  0.38474729  0.24942358     1.25400
C1555       C  0.84535941  0.39430070  0.28114930     0.87800
C1556       C  0.87709273  0.30010512  0.21842444     0.87700
C1557       C  0.87823862  0.29875520  0.28019654     0.87700
C1558       C  0.84521545  0.39679815  0.21704736     0.87900
C1559       C  0.80446773  0.03688923  0.43867265     0.02300
C1560       C  0.75963486  0.46978589  0.43834038     0.02300
C1561       C  0.75422176  0.43995992  0.41880753    -0.18300
C1562       C  0.77525213  0.46673796  0.39815941     0.02300
C1563       C  0.82230792  0.03544271  0.39880680     0.02300
C1564       C  0.83201690  0.06459337  0.41853219    -0.18300
H1565       H  0.86344105  0.10943629  0.41826215     0.04300
H1566       H  0.73368064  0.39523624  0.41954726     0.04300
O1567       O  0.68748336  0.47253901  0.27230385    -0.74400
O1568       O  0.71675126  0.08503558  0.22747326    -0.74400
O1569       O  0.71874135  0.07950436  0.27371712    -0.74500
O1570       O  0.68402571  0.47392493  0.22656319    -0.74600
O1571       O  0.59495790  0.45287797  0.22694160    -0.74500
O1572       O  0.63410344  0.06807977  0.27463098    -0.74500
O1573       O  0.63280688  0.07498370  0.22829577    -0.74400
O1574       O  0.59802200  0.45040946  0.27240790    -0.74500
Ni1575     Ni  0.69379186  0.02779020  0.24958823     1.25400
Ni1576     Ni  0.61400145  0.50495783  0.25008759     1.25400
C1577       C  0.63703468  0.44516857  0.28035727     0.87800
C1578       C  0.68094594  0.09440825  0.21903557     0.87700
C1579       C  0.68343154  0.08620180  0.28344225     0.87700
C1580       C  0.63271425  0.44765232  0.21870832     0.87900
C1581       C  0.80479718  0.03618360  0.05824599     0.02300
C1582       C  0.77873216  0.47786687  0.05672100     0.02300
C1583       C  0.77010989  0.44802472  0.07680314    -0.18300
C1584       C  0.77688288  0.47192191  0.09764690     0.02300
C1585       C  0.81239258  0.03319150  0.09930099     0.02300
C1586       C  0.82145410  0.06290478  0.07931469    -0.18300
H1587       H  0.84462056  0.10790192  0.08010493     0.04300
H1588       H  0.75863153  0.40560335  0.07627280     0.04300
C1589       C  0.69478359  0.20773468  0.44849208     0.02300
C1590       C  0.72247001  0.17970765  0.44963615     0.02300
C1591       C  0.71764876  0.14844827  0.43078800    -0.18300
C1592       C  0.69209310  0.15072951  0.41057585     0.02300
C1593       C  0.67324035  0.18616802  0.40881809     0.02300
C1594       C  0.67131405  0.21092770  0.42793397    -0.18300
H1595       H  0.65239853  0.23439736  0.42646035     0.04300
H1596       H  0.73725132  0.12558999  0.43125464     0.04300
C1597       C  0.70165779  0.18972978  0.05264181     0.02300
C1598       C  0.68707048  0.22910845  0.05138772     0.02300
C1599       C  0.66647678  0.23886178  0.07065224    -0.18300
C1600       C  0.66125093  0.21159800  0.09088368     0.02300
C1601       C  0.67230975  0.17022805  0.09183765     0.02300
C1602       C  0.69275491  0.16004000  0.07290032    -0.18300
H1603       H  0.70227146  0.12891695  0.07405597     0.04300
H1604       H  0.65825429  0.27094362  0.07039157     0.04300
C1605       C  0.98480485  0.28002553  0.44278759     0.02300
C1606       C  0.54513431  0.30726888  0.44177154     0.02300
C1607       C  0.57124771  0.32379247  0.42074092    -0.18300
C1608       C  0.53934211  0.31504542  0.40104891     0.02300
C1609       C  0.97908316  0.28505155  0.40198520     0.02300
C1610       C  0.95272765  0.26750446  0.42273040    -0.18300
H1611       H  0.90655265  0.24632670  0.42331882     0.04300
H1612       H  0.61763677  0.34781636  0.41982344     0.04300
C1613       C  0.53015637  0.28584472  0.06110387     0.02300
C1614       C  0.96944402  0.24689026  0.06089635     0.02300
C1615       C  0.93969981  0.23701078  0.08096209    -0.18300
C1616       C  0.96766948  0.26608464  0.10051092     0.02300
C1617       C  0.52758454  0.30459678  0.10067484     0.02300
C1618       C  0.55812359  0.31281577  0.08138840    -0.18300
H1619       H  0.60409555  0.34394388  0.08196337     0.04300
H1620       H  0.89340114  0.20819333  0.08124386     0.04300
C1621       C  0.62530337  0.41327722  0.30104205    -0.05200
C1622       C  0.60219015  0.35617579  0.30100136    -0.05200
C1623       C  0.58465118  0.32588772  0.32113771    -0.23300
C1624       C  0.58979465  0.35247209  0.34132589     0.18900
C1625       C  0.61246610  0.41001659  0.34117705     0.16100
C1626       C  0.63092952  0.44009583  0.32110247    -0.18400
C1627       C  0.61443287  0.43616195  0.36093728    -0.20200
C1628       C  0.59254775  0.40514400  0.38062039    -0.12800
C1629       C  0.56987575  0.34802945  0.38094006     0.03900
C1630       C  0.57109578  0.32238438  0.36153441    -0.24900
H1631       H  0.59640560  0.33497661  0.28542212     0.09000
H1632       H  0.56555704  0.28158003  0.32086527     0.12600
H1633       H  0.64770956  0.48408826  0.32087850     0.12500
H1634       H  0.63098208  0.48005846  0.36098324     0.12300
H1635       H  0.59174525  0.42530630  0.39551108     0.12800
H1636       H  0.05542296  0.27876970  0.36198502     0.14800
C1637       C  0.55805136  0.34137125  0.12000435    -0.05200
C1638       C  0.57951931  0.39814674  0.11855024    -0.05200
C1639       C  0.60210077  0.43153780  0.13763534    -0.23300
C1640       C  0.60201921  0.40791074  0.15838441     0.18900
C1641       C  0.58068496  0.35077903  0.15979100     0.16100
C1642       C  0.56102505  0.31867152  0.14041315    -0.18400
C1643       C  0.57758599  0.32624578  0.18066234    -0.20200
C1644       C  0.59635186  0.35821403  0.20005801    -0.12800
C1645       C  0.61787066  0.41475757  0.19862858     0.03900
C1646       C  0.62108365  0.43976657  0.17789098    -0.24900
H1647       H  0.07738423  0.41611262  0.10278324     0.09000
H1648       H  0.11791950  0.47520140  0.13631527     0.12600
H1649       H  0.54511111  0.27525151  0.14139906     0.12500
H1650       H  0.55883117  0.28213451  0.18206641     0.12300
H1651       H  0.59274924  0.33869474  0.21617397     0.12800
H1652       H  0.63697423  0.48355309  0.17710141     0.14800
C1653       C  0.69602423  0.10681141  0.30668417    -0.05200
C1654       C  0.75269348  0.14150048  0.31480258    -0.05200
C1655       C  0.76410036  0.15182978  0.33778971    -0.23300
C1656       C  0.71935627  0.12641783  0.35307649     0.18900
C1657       C  0.66218993  0.09088355  0.34505401     0.16100
C1658       C  0.65087744  0.08216977  0.32195552    -0.18400
C1659       C  0.61721575  0.06517109  0.36025151    -0.20200
C1660       C  0.62847666  0.07831641  0.38297563    -0.12800
C1661       C  0.68474118  0.11760244  0.39077334     0.03900
C1662       C  0.73049212  0.13851436  0.37607477    -0.24900
H1663       H  0.78810137  0.15953522  0.30339770     0.09000
H1664       H  0.80788608  0.17879973  0.34374047     0.12600
H1665       H  0.60697610  0.05399973  0.31596269     0.12500
H1666       H  0.57314627  0.03760475  0.35440599     0.12300
H1667       H  0.59271314  0.06253454  0.39408158     0.12800
H1668       H  0.77383438  0.16952324  0.38198834     0.14800
C1669       C  0.69087219  0.11917210  0.19634645    -0.05200
C1670       C  0.74559379  0.14779517  0.18700389    -0.05200
C1671       C  0.75254308  0.15918819  0.16398379    -0.23300
C1672       C  0.70504109  0.14178710  0.14985859     0.18900
C1673       C  0.64971992  0.11216483  0.15903497     0.16100
C1674       C  0.64312698  0.10218588  0.18220067    -0.18400
C1675       C  0.60180099  0.09244530  0.14484518    -0.20200
C1676       C  0.60896603  0.10593994  0.12204012    -0.12800
C1677       C  0.66416826  0.13956390  0.11313352     0.03900
C1678       C  0.71198847  0.15496167  0.12685581    -0.24900
H1679       H  0.78266818  0.15928133  0.19736829     0.09000
H1680       H  0.79471789  0.17995340  0.15704775     0.12600
H1681       H  0.60033298  0.07816375  0.18897947     0.12500
H1682       H  0.55904659  0.06839478  0.15154314     0.12300
H1683       H  0.57171084  0.09392338  0.11166003     0.12800
H1684       H  0.75467626  0.18122529  0.12006378     0.14800
C1685       C  0.94425987  0.27981372  0.38205721    -0.05200
C1686       C  0.91880889  0.30930636  0.38118954    -0.05200
C1687       C  0.89472723  0.31316381  0.36114887    -0.23300
C1688       C  0.89806338  0.28948197  0.34159045     0.18900
C1689       C  0.92228748  0.25843409  0.34248711     0.16100
C1690       C  0.94194972  0.25094443  0.36309407    -0.18400
C1691       C  0.92885492  0.23781279  0.32261362    -0.20200
C1692       C  0.91230554  0.24864260  0.30196849    -0.12800
C1693       C  0.88737033  0.27850257  0.30122826     0.03900
C1694       C  0.87965938  0.29819514  0.32100529    -0.24900
H1695       H  0.91973744  0.33124225  0.39580658     0.09000
H1696       H  0.87620710  0.33701204  0.36068400     0.12600
H1697       H  0.95894049  0.22580288  0.36409844     0.12500
H1698       H  0.94893912  0.21545733  0.32297943     0.12300
H1699       H  0.92001392  0.23489274  0.28662729     0.12800
H1700       H  0.86238513  0.32318528  0.32015038     0.14800
C1701       C  0.88548585  0.27804305  0.19835594    -0.05200
C1702       C  0.90776617  0.24581383  0.19973258    -0.05200
C1703       C  0.92151983  0.23066994  0.18016143    -0.23300
C1704       C  0.91427806  0.24868450  0.15913974     0.18900
C1705       C  0.89243271  0.28185201  0.15781678     0.16100
C1706       C  0.87711961  0.29533037  0.17742740    -0.18400
C1707       C  0.88812666  0.30254999  0.13699991    -0.20200
C1708       C  0.90950272  0.29412676  0.11791956    -0.12800
C1709       C  0.93323843  0.26311617  0.11929581     0.03900
C1710       C  0.93161394  0.23699095  0.13955927    -0.24900
H1711       H  0.91557761  0.23345687  0.21590965     0.09000
H1712       H  0.94036034  0.20725531  0.18149477     0.12600
H1713       H  0.86121547  0.32149063  0.17655512     0.12500
H1714       H  0.87117936  0.32774521  0.13570884     0.12300
H1715       H  0.91012862  0.31406146  0.10228018     0.12800
H1716       H  0.94821802  0.21147483  0.14039253     0.14800
C1717       C  0.83987832  0.41314782  0.30330088    -0.05200
C1718       C  0.88958950  0.44759094  0.31656232    -0.05200
C1719       C  0.88588671  0.45871595  0.33883168    -0.23300
C1720       C  0.83244997  0.43713086  0.34823726     0.18900
C1721       C  0.78197304  0.40291839  0.33519590     0.16100
C1722       C  0.78588617  0.39071253  0.31283602    -0.18400
C1723       C  0.72868174  0.38201337  0.34479495    -0.20200
C1724       C  0.72586085  0.39926700  0.36622177    -0.12800
C1725       C  0.77608162  0.43606117  0.37862154     0.03900
C1726       C  0.82892013  0.45141476  0.37015792    -0.24900
H1727       H  0.93170007  0.46451524  0.30998307     0.09000
H1728       H  0.92502112  0.48481591  0.34864152     0.12600
H1729       H  0.74709860  0.36364393  0.30296445     0.12500
H1730       H  0.68955681  0.35411869  0.33536334     0.12300
H1731       H  0.68496259  0.38619875  0.37278575     0.12800
H1732       H  0.86782129  0.47857093  0.37996129     0.14800
C1733       C  0.77559976  0.44222388  0.11824870    -0.05200
C1734       C  0.72623719  0.41280604  0.13124310    -0.05200
C1735       C  0.72919443  0.39671017  0.15323877    -0.23300
C1736       C  0.78197775  0.41172420  0.16268984     0.18900
C1737       C  0.83132912  0.43986557  0.14929689     0.16100
C1738       C  0.82729143  0.45296071  0.12693481    -0.18400
C1739       C  0.88452764  0.45687669  0.15873664    -0.20200
C1740       C  0.88900991  0.44612981  0.18126793    -0.12800
C1741       C  0.84015979  0.41677925  0.19471586     0.03900
C1742       C  0.78655245  0.39973161  0.18530002    -0.24900
H1743       H  0.68621496  0.40454347  0.12466139     0.09000
H1744       H  0.69094660  0.37463200  0.16317297     0.12600
H1745       H  0.86548090  0.47610768  0.11687504     0.12500
H1746       H  0.92282483  0.47890597  0.14873856     0.12300
H1747       H  0.93067553  0.45882262  0.18791104     0.12800
H1748       H  0.74855575  0.37679438  0.19544944     0.14800
C1749       C  0.85507255  0.06534796  0.37851273    -0.05200
C1750       C  0.83538190  0.08946418  0.36387083    -0.05200
C1751       C  0.85459111  0.10265837  0.34183427    -0.23300
C1752       C  0.89299501  0.09115671  0.33413312     0.18900
C1753       C  0.91453617  0.06874262  0.34909894     0.16100
C1754       C  0.89698264  0.05789029  0.37142024    -0.18400
C1755       C  0.95107025  0.05506691  0.34123566    -0.20200
C1756       C  0.96673404  0.06418378  0.31877805    -0.12800
C1757       C  0.94720479  0.08833739  0.30391601     0.03900
C1758       C  0.90984614  0.10126928  0.31169040    -0.24900
H1759       H  0.80236979  0.09450136  0.36906837     0.09000
H1760       H  0.83750308  0.11933997  0.33045873     0.12600
H1761       H  0.90626584  0.58144792  0.38315200     0.12500
H1762       H  0.96757986  0.03738452  0.35244834     0.12300
H1763       H  0.99653515  0.05492692  0.31333259     0.12800
H1764       H  0.89483125  0.12021513  0.30039486     0.14800
C1765       C  0.94050871  0.08966125  0.19614691    -0.05200
C1766       C  0.96373899  0.07152185  0.18106995    -0.05200
C1767       C  0.94707686  0.06344059  0.15853929    -0.23300
C1768       C  0.90567292  0.07180484  0.15066090     0.18900
C1769       C  0.87934897  0.08704868  0.16571447     0.16100
C1770       C  0.89756714  0.09671450  0.18843304    -0.18400
C1771       C  0.83530041  0.09196898  0.15766626    -0.20200
C1772       C  0.77651969  0.55163219  0.13675225    -0.12800
C1773       C  0.84156840  0.06298512  0.12049369     0.03900
C1774       C  0.88841394  0.06244087  0.12807605    -0.24900
H1775       H  0.99739948  0.06656126  0.18642846     0.09000
H1776       H  0.96652769  0.05054494  0.14720677     0.19200
H1777       H  0.87933440  0.11065051  0.19992729     0.12500
H1778       H  0.76544150  0.55866100  0.17171842     0.12300
H1779       H  0.73206855  0.53418049  0.13243542     0.12800
H1780       H  0.90769453  0.04918926  0.11676593     0.14800
C1781       C  0.64183725  0.22846582  0.30398048    -0.05200
C1782       C  0.69824885  0.24482850  0.30807927    -0.05200
C1783       C  0.71797969  0.24720537  0.33009168    -0.23300
C1784       C  0.68035636  0.22982401  0.34807146     0.18900
C1785       C  0.62343461  0.21322434  0.34399956     0.16100
C1786       C  0.60511669  0.21400547  0.32205173    -0.18400
C1787       C  0.58465289  0.19240040  0.36168486    -0.20200
C1788       C  0.60121642  0.18495001  0.38298698    -0.12800
C1789       C  0.65705689  0.19939337  0.38695223     0.03900
C1790       C  0.69733598  0.22483033  0.36976346    -0.24900
H1791       H  0.72620300  0.25375225  0.29424735     0.09000
H1792       H  0.76140895  0.25911840  0.33293645     0.12600
H1793       H  0.56053322  0.19817596  0.31877821     0.12500
H1794       H  0.54084303  0.17949669  0.35879504     0.12300
H1795       H  0.56998160  0.16616470  0.39617828     0.12800
H1796       H  0.74105759  0.23783380  0.37302637     0.14800
C1797       C  0.64735445  0.22805115  0.11160001    -0.05200
C1798       C  0.59007270  0.20674144  0.11585468    -0.05200
C1799       C  0.57299030  0.20454231  0.13776976    -0.23300
C1800       C  0.61315535  0.22424659  0.15558338     0.18900
C1801       C  0.67151222  0.24830907  0.15127495     0.16100
C1802       C  0.68854743  0.25185726  0.12914008    -0.18400
C1803       C  0.71064594  0.26345375  0.16929445    -0.20200
C1804       C  0.69170624  0.25370581  0.19140673    -0.12800
C1805       C  0.63423947  0.23148853  0.19565664     0.03900
C1806       C  0.59525943  0.21686471  0.17772277    -0.24900
H1807       H  0.55787870  0.18744901  0.10254339     0.09000
H1808       H  0.52790370  0.18485175  0.14091956     0.12600
H1809       H  0.73265232  0.26735506  0.12581558     0.12500
H1810       H  0.75519537  0.28037276  0.16626657     0.12300
H1811       H  0.72136936  0.26224048  0.20511032     0.12800
H1812       H  0.55013273  0.19657079  0.18107038     0.14800
C1813       C  0.85908247  0.27866578  0.88932955    -0.05200
C1814       C  0.84384426  0.22773811  0.88028039    -0.05200
C1815       C  0.85700405  0.22562566  0.85798545    -0.23300
C1816       C  0.88386026  0.27408607  0.84459736     0.18900
C1817       C  0.90323104  0.32569711  0.85467463     0.16100
C1818       C  0.89452654  0.32799717  0.87731992    -0.18400
C1819       C  0.92566536  0.37365019  0.84164633    -0.20200
C1820       C  0.92799379  0.37077260  0.81866929    -0.12800
C1821       C  0.91081512  0.32047254  0.80815885     0.03900
C1822       C  0.88952336  0.27203163  0.82129648    -0.24900
H1823       H  0.81799735  0.18941833  0.88977369     0.09000
H1824       H  0.84254067  0.18576702  0.85079969     0.12600
H1825       H  0.90725957  0.36737856  0.88462201     0.12500
H1826       H  0.93974989  0.41319690  0.84913450     0.12300
H1827       H  0.94596887  0.40927162  0.80923974     0.12800
H1828       H  0.87655303  0.23321253  0.81344315     0.14800
C1829       C  0.60083428  0.40644002  0.79935386    -0.05200
C1830       C  0.66077878  0.44052925  0.80022068    -0.05200
C1831       C  0.68958765  0.45036644  0.82088110    -0.23300
C1832       C  0.65838728  0.42717157  0.84067355     0.18900
C1833       C  0.59784425  0.39198045  0.83952032     0.16100
C1834       C  0.56978989  0.38076938  0.81880681    -0.18400
C1835       C  0.56606426  0.37158506  0.85916956    -0.20200
C1836       C  0.59389004  0.39024178  0.87991592    -0.12800
C1837       C  0.65378965  0.42714860  0.88118698     0.03900
C1838       C  0.68612188  0.44232877  0.86168751    -0.24900
H1839       H  0.68494704  0.45979892  0.78510988     0.09000
H1840       H  0.73593106  0.47822368  0.82153265     0.12600
H1841       H  0.52340007  0.35365759  0.81787552     0.12500
H1842       H  0.51964571  0.34446226  0.85844787     0.12300
H1843       H  0.56858008  0.37852082  0.89488767     0.12800
H1844       H  0.73231144  0.47132708  0.86281219     0.14800
C1845       C  0.66753024  0.44295996  0.61998217    -0.05200
C1846       C  0.67251954  0.40334888  0.63135675    -0.05200
C1847       C  0.64782786  0.38352310  0.65231204    -0.23300
C1848       C  0.62017658  0.40465284  0.66233110     0.18900
C1849       C  0.61231295  0.44210448  0.65022691     0.16100
C1850       C  0.63281739  0.45809867  0.62853783    -0.18400
C1851       C  0.58773757  0.46599810  0.66051862    -0.20200
C1852       C  0.57110403  0.45283528  0.68268806    -0.12800
C1853       C  0.57726377  0.41434069  0.69468449     0.03900
C1854       C  0.60176394  0.39025485  0.68444135    -0.24900
H1855       H  0.69778346  0.39012680  0.62452858     0.09000
H1856       H  0.65237464  0.35385041  0.66128940     0.12600
H1857       H  0.62752625  0.48744043  0.61933544     0.12500
H1858       H  0.58231685  0.49552399  0.65158289     0.12300
H1859       H  0.55144086  0.47139391  0.69018873     0.12800
H1860       H  0.60728164  0.36126794  0.69377707     0.14800
C1861       C  0.88046986  0.30435918  0.69849762    -0.05200
C1862       C  0.82233151  0.28187099  0.69498335    -0.05200
C1863       C  0.79949946  0.27085597  0.67310522    -0.23300
C1864       C  0.83513962  0.28437394  0.65468729     0.18900
C1865       C  0.89396614  0.30770674  0.65830848     0.16100
C1866       C  0.91570644  0.31583728  0.68021519    -0.18400
C1867       C  0.93059083  0.32520612  0.64000198    -0.20200
C1868       C  0.90969610  0.32337887  0.61830570    -0.12800
C1869       C  0.85168303  0.30216980  0.61469366     0.03900
C1870       C  0.81394017  0.27883587  0.63273429    -0.24900
H1871       H  0.79510339  0.27367440  0.70899768     0.09000
H1872       H  0.75454955  0.25402917  0.67051397     0.12600
H1873       H  0.96077552  0.33338235  0.68305963     0.12500
H1874       H  0.97585856  0.34309878  0.64258334     0.12300
H1875       H  0.93919618  0.34087738  0.60451254     0.12800
H1876       H  0.76873770  0.26053548  0.62979644     0.14800
C1877       C  0.55870944  0.22515638  0.87914193    -0.05200
C1878       C  0.60059755  0.27490644  0.86834908    -0.05200
C1879       C  0.62093711  0.27390729  0.84729058    -0.23300
C1880       C  0.60043189  0.22287191  0.83681112     0.18900
C1881       C  0.56142963  0.17266671  0.84837892     0.16100
C1882       C  0.54271457  0.17422748  0.86972602    -0.18400
C1883       C  0.53946452  0.12147959  0.83801992    -0.20200
C1884       C  0.55579475  0.11974336  0.81640034    -0.12800
C1885       C  0.59536403  0.16908142  0.80463356     0.03900
C1886       C  0.61766949  0.22085134  0.81503277    -0.24900
H1887       H  0.11584412  0.31449937  0.87579671     0.09000
H1888       H  0.65111853  0.31300899  0.83889696     0.12600
H1889       H  0.51209966  0.13549642  0.87830182     0.12500
H1890       H  0.50905461  0.08260786  0.84656061     0.12300
H1891       H  0.53836728  0.07923180  0.80911289     0.12800
H1892       H  0.64799449  0.25923418  0.80622622     0.14800
C1893       C  0.72127051  0.10422469  0.80088744    -0.05200
C1894       C  0.74173757  0.07045341  0.80160957    -0.05200
C1895       C  0.75322755  0.05510967  0.82235445    -0.23300
C1896       C  0.74207756  0.07171404  0.84233349     0.18900
C1897       C  0.72145710  0.10587731  0.84140369     0.16100
C1898       C  0.71268688  0.12302826  0.82068745    -0.18400
C1899       C  0.70635981  0.11938658  0.86109829    -0.20200
C1900       C  0.70726482  0.09549697  0.88142976    -0.12800
C1901       C  0.72533993  0.05963325  0.88237309     0.03900
C1902       C  0.74660884  0.05115912  0.86309738    -0.24900
H1903       H  0.74765870  0.05524877  0.78627054     0.09000
H1904       H  0.76758669  0.02775243  0.82279212     0.12600
H1905       H  0.69532818  0.14794921  0.81988454     0.12500
H1906       H  0.69042212  0.14547998  0.86055596     0.12300
H1907       H  0.60056498  0.51229534  0.89011807     0.12800
H1908       H  0.76129656  0.02407881  0.86397712     0.14800
C1909       C  0.75396322  0.06638369  0.62199847    -0.05200
C1910       C  0.74609146  0.10969391  0.61991130    -0.05200
C1911       C  0.73967008  0.13266268  0.63887286    -0.23300
C1912       C  0.74092085  0.11281071  0.66030482     0.18900
C1913       C  0.75164559  0.07118754  0.66278599     0.16100
C1914       C  0.76026719  0.04968689  0.64363003    -0.18400
C1915       C  0.74953068  0.04918992  0.68421528    -0.20200
C1916       C  0.73610732  0.06778958  0.70287412    -0.12800
C1917       C  0.72567280  0.10928119  0.70042413     0.03900
C1918       C  0.72823925  0.13159651  0.67913818    -0.24900
H1919       H  0.74058580  0.12296958  0.60352456     0.09000
H1920       H  0.73016057  0.16352874  0.63669543     0.12600
H1921       H  0.76685938  0.01662768  0.64543196     0.12500
H1922       H  0.75653801  0.01650015  0.68642907     0.12300
H1923       H  0.73260005  0.04896036  0.71915011     0.12800
H1924       H  0.71632206  0.16064241  0.67706938     0.14800
C1925       C  0.56572602  0.22664641  0.61960993    -0.05200
C1926       C  0.59129368  0.19726915  0.61877009    -0.05200
C1927       C  0.60600587  0.18129886  0.63847177    -0.23300
C1928       C  0.59534774  0.19446652  0.65931614     0.18900
C1929       C  0.57332144  0.22734511  0.66039714     0.16100
C1930       C  0.55997052  0.24443646  0.64046620    -0.18400
C1931       C  0.56422194  0.24162423  0.68139103    -0.20200
C1932       C  0.57795086  0.22440584  0.70112390    -0.12800
C1933       C  0.59877082  0.19101569  0.69996967     0.03900
C1934       C  0.60716451  0.17597726  0.67910718    -0.24900
H1935       H  0.59576290  0.18284284  0.60290666     0.09000
H1936       H  0.62377559  0.15693676  0.63741418     0.12600
H1937       H  0.54078132  0.26759169  0.64117077     0.12500
H1938       H  0.54656236  0.26601527  0.68250201     0.12300
H1939       H  0.57211452  0.23680940  0.71722462     0.12800
H1940       H  0.62420792  0.15090670  0.67834461     0.14800
C1941       C  0.89819056  0.08820910  0.79857211    -0.05200
C1942       C  0.92856174  0.14627637  0.79593632    -0.05200
C1943       C  0.94410779  0.18030660  0.81482325    -0.23300
C1944       C  0.92825798  0.15619353  0.83634854     0.18900
C1945       C  0.89646952  0.09753973  0.83871945     0.16100
C1946       C  0.88274119  0.06432847  0.81990674    -0.18400
C1947       C  0.88002118  0.07275868  0.85994011    -0.20200
C1948       C  0.89749980  0.10568180  0.87895794    -0.12800
C1949       C  0.93291227  0.16396656  0.87707088     0.03900
C1950       C  0.94601136  0.18929465  0.85565799    -0.24900
H1951       H  0.94051906  0.16509635  0.77939511     0.09000
H1952       H  0.96867208  0.22520491  0.81264351     0.12600
H1953       H  0.85992457  0.01963747  0.82183928     0.12500
H1954       H  0.85554845  0.02792715  0.86191064     0.12300
H1955       H  0.88744322  0.08555381  0.89527888     0.12800
H1956       H  0.97340920  0.23440004  0.85418673     0.14800
C1957       C  0.77139308  0.36123398  0.80049932    -0.05200
C1958       C  0.76957183  0.31204490  0.80151179    -0.05200
C1959       C  0.76574954  0.28640406  0.82224355    -0.23300
C1960       C  0.76841105  0.31208085  0.84237301     0.18900
C1961       C  0.77133688  0.36201746  0.84135163     0.16100
C1962       C  0.76972109  0.38448979  0.82050832    -0.18400
C1963       C  0.77960466  0.39079468  0.86110275    -0.20200
C1964       C  0.78880503  0.37267853  0.88154495    -0.12800
C1965       C  0.78535202  0.32253831  0.88318206     0.03900
C1966       C  0.77176917  0.29084818  0.86341910    -0.24900
H1967       H  0.77308654  0.29459231  0.78632378     0.09000
H1968       H  0.76500212  0.24887036  0.82257976     0.12600
H1969       H  0.77286974  0.42318766  0.81985982     0.12500
H1970       H  0.78161179  0.42882951  0.86056782     0.12300
H1971       H  0.79964091  0.39885211  0.89604452     0.12800
H1972       H  0.76666012  0.25117027  0.86419569     0.14800
C1973       C  0.94127857  0.17076216  0.62055903    -0.05200
C1974       C  0.91394684  0.18896860  0.63315906    -0.05200
C1975       C  0.89535319  0.16771908  0.65486271    -0.23300
C1976       C  0.90573358  0.12951343  0.66428008     0.18900
C1977       C  0.93185276  0.11037002  0.65111807     0.16100
C1978       C  0.94585429  0.12832852  0.62900542    -0.18400
C1979       C  0.94731677  0.07648219  0.66061244    -0.20200
C1980       C  0.93652537  0.06094025  0.68299167    -0.12800
C1981       C  0.90707111  0.07617091  0.69599154     0.03900
C1982       C  0.89175039  0.11075056  0.68661656    -0.24900
H1983       H  0.90938110  0.22114163  0.62659772     0.09000
H1984       H  0.87539084  0.18299392  0.66459548     0.12600
H1985       H  0.96623464  0.11376301  0.61905750     0.12500
H1986       H  0.96889077  0.06294693  0.65085596     0.12300
H1987       H  0.94918985  0.03476248  0.68989191     0.12800
H1988       H  0.86975476  0.12327400  0.69667784     0.14800
C1989       C  0.79126611  0.38346264  0.69408187    -0.05200
C1990       C  0.73630040  0.34272367  0.68577074    -0.05200
C1991       C  0.72756944  0.33067265  0.66283638    -0.23300
C1992       C  0.77246123  0.36106127  0.64781544     0.18900
C1993       C  0.82774160  0.40262847  0.65610611     0.16100
C1994       C  0.83695303  0.41256974  0.67917229    -0.18400
C1995       C  0.87321861  0.43251079  0.64126372    -0.20200
C1996       C  0.86494710  0.41794267  0.61867648    -0.12800
C1997       C  0.81107431  0.37371066  0.61065140     0.03900
C1998       C  0.76395589  0.34799929  0.62488902    -0.24900
H1999       H  0.70035736  0.32064323  0.69694875     0.09000
H2000       H  0.68570653  0.29824392  0.65663081     0.12600
H2001       H  0.87942848  0.44449231  0.68546857     0.12500
H2002       H  0.91588359  0.46460579  0.64735604     0.12300
H2003       H  0.90176939  0.43749844  0.60791148     0.12800
H2004       H  0.72254512  0.31318604  0.61876401     0.14800
O2005       O  0.69152167  0.66357641  0.01475984    -0.80900
O2006       O  0.86124839  0.66504785  0.95503861    -0.65600
O2007       O  0.75162208  0.62339727  0.00024995    -1.12200
C2008       C  0.92255307  0.71600742  0.04091791     1.06000
O2009       O  0.93716987  0.68521456  0.97763850    -0.78800
O2010       O  0.85111250  0.58264939  0.02635661    -0.66400
Ni2011     Ni  0.68853130  0.61759309  0.99029668     1.34900
C2012       C  0.81072478  0.57312507  0.03873197     0.84700
O2013       O  0.76687933  0.56699480  0.97304139    -0.79300
O2014       O  0.68726707  0.56799806  0.96707959    -0.89600
C2015       C  0.91526200  0.68560932  0.95830788     0.84300
O2016       O  0.72641987  0.68243642  0.97029722    -0.67800
O2017       O  0.93808823  0.69389612  0.02665452    -0.87100
C2018       C  0.77919487  0.72067552  0.96661074     0.85100
C2019       C  0.71704079  0.54694840  0.96374404     1.06700
H2020       H  0.88153342  0.70617753  0.99755061     0.38500
O2021       O  0.85316174  0.66676647  0.99995783    -1.09700
O2022       O  0.78997833  0.60196399  0.03764808    -0.66400
Ni2023     Ni  0.80844806  0.66759645  0.02113210     1.26300
O2024       O  0.81904844  0.71723525  0.97466864    -0.66600
O2025       O  0.87373193  0.71013476  0.04044961    -0.78900
C2026       C  0.71516594  0.67457159  0.03457191     0.84500
O2027       O  0.75766005  0.67170347  0.04007385    -0.66100
Ni2028     Ni  0.89475888  0.63680553  0.00305800     1.27400
Ni2029     Ni  0.80080452  0.64371697  0.97596145     1.26100
H2030       H  0.73641758  0.58577115  0.00517598     0.39100
O2031       O  0.81419789  0.54846391  0.47624095    -0.80900
O2032       O  0.81544399  0.71838428  0.53673426    -0.65600
O2033       O  0.82560908  0.62770698  0.49762660    -1.12200
C2034       C  0.94838335  0.75940096  0.46282129     1.06000
O2035       O  0.82885327  0.78634314  0.51256753    -0.78800
O2036       O  0.80712931  0.74983128  0.46803599    -0.66400
Ni2037     Ni  0.86300887  0.59354217  0.50151144     1.34900
C2038       C  0.76773880  0.69838106  0.46390782     0.84700
O2039       O  0.78097500  0.60807004  0.53800550    -0.79300
O2040       O  0.80690275  0.55112109  0.52561246    -0.89600
C2041       C  0.81630654  0.76197575  0.53203313     0.84300
O2042       O  0.91829742  0.64019480  0.52462303    -0.67800
O2043       O  0.92595490  0.78797196  0.46532795    -0.87100
C2044       C  0.92317367  0.67709843  0.53730266     0.85100
C2045       C  0.78142529  0.56401104  0.53951804     1.06700
H2046       H  0.90570346  0.74083006  0.50317598     0.38500
O2047       O  0.86717393  0.72571931  0.49780331    -1.09700
O2048       O  0.77226922  0.65934886  0.47095701    -0.66400
Ni2049     Ni  0.84829672  0.67778659  0.47354159     1.26300
O2050       O  0.88944289  0.69241336  0.53600557    -0.66600
O2051       O  0.92721722  0.71096825  0.47198287    -0.78900
C2052       C  0.81076918  0.56698765  0.45669432     0.84500
O2053       O  0.82837813  0.61845301  0.45290698    -0.66100
Ni2054     Ni  0.87475364  0.78756844  0.48804067     1.27400
Ni2055     Ni  0.82220167  0.67056486  0.51839689     1.26100
H2056       H  0.78559276  0.59838445  0.49494885     0.39100
O2057       O  0.77321128  0.92032311  0.72489075    -0.74400
O2058       O  0.82190823  0.52611143  0.76993298    -0.74400
O2059       O  0.82805845  0.52527268  0.72406800    -0.74500
O2060       O  0.76816561  0.92033411  0.77119820    -0.74600
O2061       O  0.84641500  0.91965609  0.77306220    -0.74500
O2062       O  0.90958485  0.53144426  0.72937841    -0.74500
O2063       O  0.90017941  0.52601362  0.77487231    -0.74400
O2064       O  0.85443210  0.92496571  0.72706635    -0.74500
Ni2065     Ni  0.79927260  0.97598722  0.74757695     1.25400
Ni2066     Ni  0.88450469  0.97791051  0.75099548     1.25400
C2067       C  0.80728760  0.90956403  0.71684993     0.87800
C2068       C  0.86926347  0.54311208  0.78019483     0.87700
C2069       C  0.87917238  0.54377221  0.71808280     0.87700
C2070       C  0.79679916  0.90269344  0.78014837     0.87900
O2071       O  0.63169889  0.57807907  0.72398339    -0.74400
O2072       O  0.57032341  0.61596036  0.77105219    -0.74400
O2073       O  0.57398755  0.62669963  0.72518121    -0.74500
O2074       O  0.62684242  0.56863497  0.76956934    -0.74600
O2075       O  0.71071235  0.65189318  0.77204415    -0.74500
O2076       O  0.65629401  0.71087872  0.72874372    -0.74500
O2077       O  0.65323711  0.69919981  0.77486284    -0.74400
O2078       O  0.71380474  0.66260809  0.72638153    -0.74500
Ni2079     Ni  0.59775678  0.59449042  0.74720764     1.25400
Ni2080     Ni  0.68644962  0.68425308  0.75051323     1.25400
C2081       C  0.68270538  0.61425908  0.71731617     0.87800
C2082       C  0.60294333  0.66155104  0.78194814     0.87700
C2083       C  0.60709661  0.67802593  0.71931002     0.87700
C2084       C  0.67591521  0.60178090  0.77901627     0.87900
O2085       O  0.52858709  0.92361533  0.77026239    -0.74400
O2086       O  0.90589753  0.85015579  0.72665954    -0.74400
O2087       O  0.91537523  0.85596615  0.77223092    -0.74500
O2088       O  0.51913687  0.91967865  0.72454105    -0.74600
O2089       O  0.52204213  0.84491356  0.72344988    -0.74500
O2090       O  0.92580385  0.78586896  0.77532626    -0.74500
O2091       O  0.90933063  0.77551760  0.72889481    -0.74400
O2092       O  0.53821893  0.85288745  0.76882830    -0.74500
Ni2093     Ni  0.46687582  0.88979359  0.74838985     1.25400
Ni2094     Ni  0.97369609  0.81183136  0.74912792     1.25400
C2095       C  0.55166056  0.89872737  0.77738226     0.87800
C2096       C  0.89078181  0.80235967  0.71953961     0.87700
C2097       C  0.91007801  0.81553504  0.78344170     0.87700
C2098       C  0.53480893  0.89163213  0.71514834     0.87900
C2099       C  0.96223560  0.69638379  0.55711609     0.02300
C2100       C  0.52315302  0.72847278  0.55682928     0.02300
C2101       C  0.55376370  0.74450093  0.57743362    -0.18300
C2102       C  0.52596080  0.72545776  0.59808194     0.02300
C2103       C  0.96522577  0.69085622  0.59815566     0.02300
C2104       C  0.93462028  0.67926293  0.57791009    -0.18300
H2105       H  0.88830558  0.65282983  0.57825260     0.04300
H2106       H  0.60027919  0.76955023  0.57735945     0.04300
C2107       C  0.71889516  0.97185786  0.56139505     0.02300
C2108       C  0.75479188  0.52989364  0.56006451     0.02300
C2109       C  0.76462776  0.55988431  0.58000965    -0.18300
C2110       C  0.73984392  0.53303136  0.60036107     0.02300
C2111       C  0.70292810  0.97416005  0.60144325     0.02300
C2112       C  0.69252642  0.94461807  0.58172029    -0.18300
H2113       H  0.65970090  0.90006451  0.58195389     0.04300
H2114       H  0.79067238  0.60505862  0.57962134     0.04300
C2115       C  0.76760556  0.79113335  0.94600753     0.02300
C2116       C  0.79199213  0.76024394  0.94798921     0.02300
C2117       C  0.81536828  0.75359736  0.92876985    -0.18300
C2118       C  0.81080314  0.77298053  0.90759749     0.02300
C2119       C  0.77927549  0.79703724  0.90504362     0.02300
C2120       C  0.75940308  0.80640899  0.92438282    -0.18300
H2121       H  0.73724768  0.82663182  0.92242900     0.04300
H2122       H  0.83541924  0.73118061  0.93007244     0.04300
C2123       C  0.78358636  0.81858039  0.55024134     0.02300
C2124       C  0.80810897  0.78758545  0.55147270     0.02300
C2125       C  0.82757519  0.78068143  0.57243577    -0.18300
C2126       C  0.82573598  0.80544507  0.59169980     0.02300
C2127       C  0.81018550  0.84357126  0.58992585     0.02300
C2128       C  0.78805488  0.84903186  0.56935846    -0.18300
H2129       H  0.77058870  0.87381784  0.56874493     0.04300
H2130       H  0.84396157  0.75501194  0.57403417     0.04300
C2131       C  0.70195287  0.51268901  0.94349964     0.02300
C2132       C  0.67961651  0.95750501  0.94169732     0.02300
C2133       C  0.65960498  0.93271015  0.92046461    -0.18300
C2134       C  0.67322480  0.96535655  0.90106888     0.02300
C2135       C  0.69351268  0.51438549  0.90278804     0.02300
C2136       C  0.70532204  0.54046040  0.92342038    -0.18300
H2137       H  0.71561332  0.58246502  0.92384109     0.04300
H2138       H  0.62992183  0.88772780  0.91916870     0.04300
C2139       C  0.95188329  0.70623798  0.93798687     0.02300
C2140       C  0.51291127  0.74317340  0.93820724     0.02300
C2141       C  0.54256911  0.75013254  0.91816825    -0.18300
C2142       C  0.51385859  0.72122945  0.89844344     0.02300
C2143       C  0.95330711  0.68847306  0.89796525     0.02300
C2144       C  0.92348187  0.68186983  0.91739977    -0.18300
H2145       H  0.87708258  0.65389814  0.91660415     0.04300
H2146       H  0.58901873  0.77692137  0.91803377     0.04300
O2147       O  0.67597677  0.71687210  0.48500091    -0.80900
O2148       O  0.67800482  0.88443091  0.54451694    -0.65600
O2149       O  0.63709788  0.77726055  0.49987415    -1.12200
C2150       C  0.73265946  0.94240898  0.45845305     1.06000
O2151       O  0.69837976  0.95766444  0.52167474    -0.78800
O2152       O  0.59595656  0.87361904  0.47174067    -0.66400
Ni2153     Ni  0.63116252  0.71598891  0.50996138     1.34900
C2154       C  0.58525854  0.83239768  0.46028973     0.84700
O2155       O  0.57825965  0.79127896  0.52707939    -0.79300
O2156       O  0.58178813  0.71562315  0.53362902    -0.89600
C2157       C  0.69820896  0.93652945  0.54109148     0.84300
O2158       O  0.69956986  0.75433483  0.52928537    -0.67800
O2159       O  0.71013949  0.95822170  0.47252225    -0.87100
C2160       C  0.73857001  0.80585060  0.53320210     0.85100
C2161       C  0.55900612  0.74361184  0.53673562     1.06700
H2162       H  0.72120747  0.90377861  0.50247110     0.38500
O2163       O  0.68074525  0.87597552  0.49986364    -1.09700
O2164       O  0.61465414  0.81214353  0.46212367    -0.66400
Ni2165     Ni  0.68260438  0.83244646  0.47909050     1.26300
O2166       O  0.73351797  0.84435536  0.52601457    -0.66600
O2167       O  0.72612145  0.89479143  0.45933563    -0.78900
C2168       C  0.68816959  0.74112992  0.46552347     0.84500
O2169       O  0.68792667  0.78403378  0.46075897    -0.66100
Ni2170     Ni  0.65031443  0.91650630  0.49562102     1.27400
Ni2171     Ni  0.65734727  0.82556928  0.52402977     1.26100
H2172       H  0.59830122  0.76218700  0.49485333     0.39100
O2173       O  0.53467031  0.80709377  0.02141484    -0.80900
O2174       O  0.71134981  0.81836512  0.96003452    -0.65600
O2175       O  0.61916247  0.82567541  0.99978751    -1.12200
C2176       C  0.75950256  0.94177719  0.03723856     1.06000
O2177       O  0.77430694  0.81939184  0.98470918    -0.78800
O2178       O  0.74186411  0.80257383  0.02941349    -0.66400
Ni2179     Ni  0.57641802  0.85433314  0.99583495     1.34900
C2180       C  0.68867698  0.76565510  0.03282744     0.84700
O2181       O  0.59893438  0.78276299  0.95879262    -0.79300
O2182       O  0.53296591  0.79607548  0.97252362    -0.89600
C2183       C  0.74961172  0.80953544  0.96509891     0.84300
O2184       O  0.61912397  0.90698804  0.97213882    -0.67800
O2185       O  0.78694488  0.91856301  0.03322029    -0.87100
C2186       C  0.66165469  0.91825972  0.96079152     0.85100
C2187       C  0.54948286  0.77508102  0.95813563     1.06700
H2188       H  0.73689370  0.90408945  0.99543906     0.38500
O2189       O  0.72013761  0.86593860  0.00002605    -1.09700
O2190       O  0.65017843  0.77157703  0.02491482    -0.66400
Ni2191     Ni  0.67084538  0.84630326  0.02416860     1.26300
O2192       O  0.68421254  0.89117929  0.96278904    -0.66600
O2193       O  0.70951697  0.92379319  0.02836409    -0.78900
C2194       C  0.55625056  0.80735856  0.04089257     0.84500
O2195       O  0.60985069  0.82650071  0.04462152    -0.66100
Ni2196     Ni  0.78150299  0.86735888  0.00949642     1.27400
Ni2197     Ni  0.66302242  0.82395050  0.97879098     1.26100
H2198       H  0.59056707  0.78622707  0.00193655     0.39100
O2199       O  0.95516530  0.65872349  0.22570296    -0.74400
O2200       O  0.57027234  0.73363748  0.27235182    -0.74400
O2201       O  0.56785937  0.73629742  0.22579949    -0.74500
O2202       O  0.95741153  0.65645316  0.27167396    -0.74600
O2203       O  0.97555342  0.59126936  0.27175105    -0.74500
O2204       O  0.58402803  0.66977765  0.22517360    -0.74500
O2205       O  0.58798010  0.66833284  0.27078255    -0.74400
O2206       O  0.97155250  0.59235483  0.22539331    -0.74500
Ni2207     Ni  0.51216342  0.69875230  0.24891754     1.25400
Ni2208     Ni  0.53002409  0.62788522  0.24825724     1.25400
C2209       C  0.94804805  0.61554375  0.21682336     0.87800
C2210       C  0.59574259  0.71143014  0.27994996     0.87700
C2211       C  0.59125009  0.71430667  0.21706569     0.87700
C2212       C  0.95204449  0.61328044  0.28036545     0.87900
O2213       O  0.80225697  0.85222999  0.27369802    -0.74400
O2214       O  0.82809311  0.77873596  0.22798855    -0.74400
O2215       O  0.82996148  0.77843700  0.27398782    -0.74500
O2216       O  0.80074849  0.85228128  0.22738735    -0.74600
O2217       O  0.89400610  0.92122439  0.22744858    -0.74500
O2218       O  0.92327427  0.84754892  0.27379404    -0.74500
O2219       O  0.92139986  0.84789139  0.22848591    -0.74400
O2220       O  0.89555125  0.92102855  0.27423356    -0.74500
Ni2221     Ni  0.81187866  0.81306689  0.25079663     1.25400
Ni2222     Ni  0.91174781  0.88726716  0.25101704     1.25400
C2223       C  0.84557948  0.89615912  0.28272349     0.87800
C2224       C  0.87863118  0.80224598  0.22030895     0.87700
C2225       C  0.88118039  0.80153689  0.28177611     0.87700
C2226       C  0.84384662  0.89576057  0.21830286     0.87900
C2227       C  0.78932959  0.52901794  0.43686733     0.02300
C2228       C  0.76479483  0.97769287  0.43857465     0.02300
C2229       C  0.75454796  0.94892995  0.41813763    -0.18300
C2230       C  0.78271989  0.97714243  0.39841974     0.02300
C2231       C  0.79789112  0.52394518  0.39626538     0.02300
C2232       C  0.80540091  0.55447038  0.41541085    -0.18300
H2233       H  0.82690922  0.59916808  0.41352024     0.04300
H2234       H  0.72415930  0.90398037  0.41745901     0.04300
O2235       O  0.66449385  0.96908099  0.27135064    -0.74400
O2236       O  0.72465643  0.58176008  0.22642261    -0.74400
O2237       O  0.72876868  0.58067808  0.27275283    -0.74500
O2238       O  0.66243454  0.97460712  0.22596914    -0.74600
O2239       O  0.57866921  0.96526687  0.22607501    -0.74500
O2240       O  0.63941579  0.55814781  0.27358360    -0.74500
O2241       O  0.63579064  0.56040810  0.22734175    -0.74400
O2242       O  0.58016612  0.95855023  0.27172899    -0.74500
Ni2243     Ni  0.70959046  0.52828955  0.24948357     1.25400
Ni2244     Ni  0.60357771  0.01667456  0.25021318     1.25400
C2245       C  0.61460051  0.94666411  0.27944305     0.87800
C2246       C  0.68462103  0.58515570  0.21799097     0.87700
C2247       C  0.69004831  0.58275969  0.28218419     0.87700
C2248       C  0.61213532  0.95419519  0.21773549     0.87900
C2249       C  0.79311518  0.53341259  0.05782444     0.02300
C2250       C  0.77808757  0.97720929  0.05754743     0.02300
C2251       C  0.76697308  0.94760852  0.07796793    -0.18300
C2252       C  0.78316863  0.97472501  0.09865186     0.02300
C2253       C  0.79196165  0.52693849  0.09885546     0.02300
C2254       C  0.79871124  0.55651579  0.07909301    -0.18300
H2255       H  0.81279257  0.59962567  0.08039417     0.04300
H2256       H  0.74599747  0.90275112  0.07779085     0.04300
C2257       C  0.69671877  0.71601210  0.44603799     0.02300
C2258       C  0.72243113  0.68606287  0.44693759     0.02300
C2259       C  0.71692417  0.65528266  0.42778729    -0.18300
C2260       C  0.69216107  0.65905210  0.40758869     0.02300
C2261       C  0.67597894  0.69674942  0.40590640     0.02300
C2262       C  0.67566784  0.72205892  0.42528415    -0.18300
H2263       H  0.65882413  0.74735235  0.42396961     0.04300
H2264       H  0.73469577  0.63076405  0.42814774     0.04300
C2265       C  0.69005452  0.68716094  0.05303064     0.02300
C2266       C  0.67372320  0.72526222  0.05137878     0.02300
C2267       C  0.65396057  0.73595033  0.07065735    -0.18300
C2268       C  0.65152757  0.71131392  0.09132404     0.02300
C2269       C  0.66306472  0.67023879  0.09263826     0.02300
C2270       C  0.68284309  0.65916666  0.07365341    -0.18300
H2271       H  0.69315824  0.62865059  0.07504412     0.04300
H2272       H  0.64509180  0.76758109  0.07009497     0.04300
C2273       C  0.98318180  0.77288927  0.44284584     0.02300
C2274       C  0.54353947  0.81252498  0.44137708     0.02300
C2275       C  0.56711973  0.83361804  0.42016942    -0.18300
C2276       C  0.53208672  0.81691997  0.40093299     0.02300
C2277       C  0.97327553  0.77348788  0.40222397     0.02300
C2278       C  0.94984531  0.75144817  0.42309801    -0.18300
H2279       H  0.90375738  0.72115418  0.42407913     0.04300
H2280       H  0.61251467  0.86622803  0.41880687     0.04300
C2281       C  0.51929167  0.78890430  0.06079544     0.02300
C2282       C  0.95916060  0.74664809  0.06076758     0.02300
C2283       C  0.92902479  0.73464226  0.08088955    -0.18300
C2284       C  0.95516406  0.76655443  0.10001441     0.02300
C2285       C  0.51331811  0.81129472  0.09940939     0.02300
C2286       C  0.54543197  0.82016647  0.08050883    -0.18300
H2287       H  0.59031891  0.85479011  0.08066463     0.04300
H2288       H  0.88365266  0.70155016  0.08146844     0.04300
C2289       C  0.59931528  0.91247277  0.29980720    -0.05200
C2290       C  0.62035235  0.87977071  0.30439228    -0.05200
C2291       C  0.61366174  0.85579222  0.32565781    -0.23300
C2292       C  0.58751587  0.86572429  0.34267614     0.18900
C2293       C  0.56609124  0.89848179  0.33794262     0.16100
C2294       C  0.57095396  0.92041495  0.31648290    -0.18400
C2295       C  0.54089048  0.90966926  0.35482256    -0.20200
C2296       C  0.53511255  0.88699075  0.37610978    -0.12800
C2297       C  0.55354761  0.85212390  0.38068158     0.03900
C2298       C  0.58147641  0.84292413  0.36421767    -0.24900
H2299       H  0.64333909  0.87417280  0.29177700     0.09000
H2300       H  0.63116453  0.83167702  0.32908522     0.12600
H2301       H  0.55563162  0.94658064  0.31314710     0.12500
H2302       H  0.52432790  0.93469877  0.35141240     0.12300
H2303       H  0.51284630  0.89363630  0.38870343     0.12800
H2304       H  0.09521411  0.81560616  0.36780995     0.14800
C2305       C  0.53858615  0.85164108  0.11787380    -0.05200
C2306       C  0.52010917  0.88660837  0.12097219    -0.05200
C2307       C  0.52984723  0.91317866  0.14144568    -0.23300
C2308       C  0.55741575  0.90425434  0.15911331     0.18900
C2309       C  0.57775575  0.87053940  0.15571424     0.16100
C2310       C  0.56977823  0.84589978  0.13485553    -0.18400
C2311       C  0.60439571  0.86078292  0.17341278    -0.20200
C2312       C  0.61332994  0.88613761  0.19406793    -0.12800
C2313       C  0.59455147  0.92063750  0.19741398     0.03900
C2314       C  0.56542665  0.92867939  0.18006962    -0.24900
H2315       H  0.99516882  0.89055006  0.10795959     0.09000
H2316       H  0.01408318  0.93896389  0.14370259     0.12600
H2317       H  0.58394275  0.81899655  0.13232891     0.12500
H2318       H  0.62048665  0.83546951  0.17101430     0.12300
H2319       H  0.63628830  0.87999606  0.20727074     0.12800
H2320       H  0.55149987  0.95595094  0.18256180     0.14800
C2321       C  0.70133998  0.60626642  0.30495328    -0.05200
C2322       C  0.75708243  0.63580217  0.31430525    -0.05200
C2323       C  0.76599505  0.64515869  0.33739054    -0.23300
C2324       C  0.71979151  0.62638206  0.35150030     0.18900
C2325       C  0.66356990  0.59689733  0.34224850     0.16100
C2326       C  0.65479558  0.58785016  0.31907763    -0.18400
C2327       C  0.61697308  0.57666028  0.35635925    -0.20200
C2328       C  0.62645878  0.59014856  0.37906908    -0.12800
C2329       C  0.68260393  0.62456746  0.38790167     0.03900
C2330       C  0.72900603  0.63897172  0.37449238    -0.24900
H2331       H  0.79354158  0.64881455  0.30398213     0.09000
H2332       H  0.80871880  0.66491138  0.34439589     0.12600
H2333       H  0.61134715  0.56366277  0.31227160     0.12500
H2334       H  0.57345447  0.55297412  0.34964544     0.12300
H2335       H  0.59025466  0.57878100  0.38925386     0.12800
H2336       H  0.77234633  0.66562495  0.38125269     0.14800
C2337       C  0.69189977  0.61104765  0.19554980    -0.05200
C2338       C  0.74459679  0.63711889  0.18468026    -0.05200
C2339       C  0.74828714  0.64916645  0.16172722    -0.23300
C2340       C  0.69993441  0.63688107  0.14925544     0.18900
C2341       C  0.64679416  0.61129264  0.16002109     0.16100
C2342       C  0.64324599  0.59918967  0.18308106    -0.18400
C2343       C  0.59788184  0.59732736  0.14744331    -0.20200
C2344       C  0.60232179  0.61149675  0.12470657    -0.12800
C2345       C  0.65578790  0.64046729  0.11421551     0.03900
C2346       C  0.70408461  0.65090596  0.12634172    -0.24900
H2347       H  0.78245146  0.64545765  0.19363301     0.09000
H2348       H  0.78850803  0.66613695  0.15352107     0.12600
H2349       H  0.60190640  0.57794368  0.19101332     0.12500
H2350       H  0.55656521  0.57699289  0.15531721     0.12300
H2351       H  0.56466926  0.60325013  0.11561037     0.12800
H2352       H  0.74546279  0.67354352  0.11838628     0.14800
C2353       C  0.93453468  0.75978897  0.38256515    -0.05200
C2354       C  0.89549121  0.77474672  0.38284869    -0.05200
C2355       C  0.87257711  0.78027189  0.36282899    -0.23300
C2356       C  0.88903259  0.77149462  0.34232766     0.18900
C2357       C  0.92499205  0.75237629  0.34198491     0.16100
C2358       C  0.94590435  0.74474044  0.36225092    -0.18400
C2359       C  0.94259158  0.74514360  0.32137293    -0.20200
C2360       C  0.92684638  0.75934709  0.30134365    -0.12800
C2361       C  0.89135774  0.77841022  0.30176986     0.03900
C2362       C  0.87144108  0.78306022  0.32217293    -0.24900
H2363       H  0.88644953  0.78660676  0.39839280     0.09000
H2364       H  0.84465399  0.79443962  0.36330850     0.12600
H2365       H  0.97576354  0.73283639  0.36211224     0.12500
H2366       H  0.97058591  0.73106403  0.32082348     0.12300
H2367       H  0.94315952  0.75654732  0.28560847     0.12800
H2368       H  0.84509657  0.79900649  0.32238322     0.14800
C2369       C  0.88735877  0.77953985  0.20047529    -0.05200
C2370       C  0.92541904  0.76347500  0.20125505    -0.05200
C2371       C  0.93960551  0.74938518  0.18153875    -0.23300
C2372       C  0.91778657  0.75365899  0.16077207     0.18900
C2373       C  0.87956841  0.77010411  0.15991125     0.16100
C2374       C  0.86343522  0.78151336  0.17988074    -0.18400
C2375       C  0.85963648  0.77652488  0.13905376    -0.20200
C2376       C  0.88029074  0.77009433  0.11920507    -0.12800
C2377       C  0.92068048  0.75681188  0.12002124     0.03900
C2378       C  0.93661688  0.74552783  0.14079294    -0.24900
H2379       H  0.94484386  0.76281073  0.21705493     0.09000
H2380       H  0.96948799  0.73751984  0.18242635     0.12600
H2381       H  0.83502642  0.79517998  0.17933752     0.12500
H2382       H  0.83004781  0.78878376  0.13812066     0.12300
H2383       H  0.86778119  0.77917107  0.10329360     0.12800
H2384       H  0.96773466  0.73543638  0.14141054     0.14800
C2385       C  0.83956546  0.91232168  0.30520759    -0.05200
C2386       C  0.87203365  0.91038262  0.32295023    -0.05200
C2387       C  0.86038892  0.91381352  0.34520062    -0.23300
C2388       C  0.81798596  0.92233281  0.35014225     0.18900
C2389       C  0.78736811  0.92786883  0.33237280     0.16100
C2390       C  0.79687697  0.92083520  0.30998541    -0.18400
C2391       C  0.74910448  0.94190845  0.33733887    -0.20200
C2392       C  0.74197949  0.95132323  0.35952404    -0.12800
C2393       C  0.77293713  0.94675820  0.37719407     0.03900
C2394       C  0.80882669  0.92956791  0.37246778    -0.24900
H2395       H  0.90482512  0.90343387  0.31961113     0.09000
H2396       H  0.88528803  0.91077693  0.35852377     0.12600
H2397       H  0.77157807  0.92227971  0.29637857     0.12500
H2398       H  0.72744402  0.94904988  0.32394954     0.12300
H2399       H  0.71577256  0.96652512  0.36273552     0.12800
H2400       H  0.83460177  0.92827982  0.38591764     0.14800
C2401       C  0.77407392  0.94327782  0.11982419    -0.05200
C2402       C  0.73702916  0.94038255  0.13577557    -0.05200
C2403       C  0.74203020  0.92917038  0.15829465    -0.23300
C2404       C  0.78395999  0.92058786  0.16526272     0.18900
C2405       C  0.82032376  0.92184438  0.14914117     0.16100
C2406       C  0.81376003  0.93116722  0.12640889    -0.18400
C2407       C  0.86543654  0.91805124  0.15623014    -0.20200
C2408       C  0.87476283  0.91365929  0.17903014    -0.12800
C2409       C  0.83779621  0.91050747  0.19513132     0.03900
C2410       C  0.79169653  0.91302365  0.18814264    -0.24900
H2411       H  0.70746353  0.95137612  0.13109558     0.09000
H2412       H  0.71625829  0.93153075  0.17054175     0.12600
H2413       H  0.84373139  0.93532483  0.11427650     0.12500
H2414       H  0.89424016  0.91963536  0.14420138     0.12300
H2415       H  0.90969760  0.91030202  0.18405863     0.12800
H2416       H  0.76264284  0.90991875  0.20046744     0.14800
C2417       C  0.81958848  0.55271917  0.37450521    -0.05200
C2418       C  0.78090851  0.54346762  0.35705950    -0.05200
C2419       C  0.79895310  0.55537470  0.33483012    -0.23300
C2420       C  0.85534056  0.57462647  0.32976153     0.18900
C2421       C  0.89419577  0.58381860  0.34741531     0.16100
C2422       C  0.87700779  0.57613598  0.36970488    -0.18400
C2423       C  0.94809718  0.59608210  0.34248331    -0.20200
C2424       C  0.96379192  0.60002958  0.32027722    -0.12800
C2425       C  0.92741770  0.59526652  0.30268369     0.03900
C2426       C  0.87318740  0.58292724  0.30741529    -0.24900
H2427       H  0.73617484  0.52424720  0.36056424     0.09000
H2428       H  0.76802033  0.54631524  0.32154480     0.12600
H2429       H  0.91172657  0.03872758  0.38273530     0.12500
H2430       H  0.97748697  0.60109846  0.35578127     0.12300
H2431       H  0.00584278  0.60972846  0.31682932     0.12800
H2432       H  0.84504524  0.57919384  0.29381038     0.14800
C2433       C  0.92227977  0.59892709  0.19420282    -0.05200
C2434       C  0.95654528  0.59959979  0.17753358    -0.05200
C2435       C  0.94055939  0.59504336  0.15503950    -0.23300
C2436       C  0.88816262  0.58619303  0.14885741     0.18900
C2437       C  0.85093827  0.58111827  0.16552734     0.16100
C2438       C  0.86941741  0.59011493  0.18819849    -0.18400
C2439       C  0.79541388  0.56492134  0.15917071    -0.20200
C2440       C  0.81587347  0.07912992  0.13524549    -0.12800
C2441       C  0.81391309  0.55700695  0.12035884     0.03900
C2442       C  0.87066919  0.57773225  0.12633629    -0.24900
H2443       H  0.99754520  0.60667291  0.18186227     0.09000
H2444       H  0.96862625  0.59708481  0.14250831     0.19200
H2445       H  0.84267875  0.58923343  0.20105271     0.12500
H2446       H  0.81433041  0.10333179  0.16892201     0.12300
H2447       H  0.77898338  0.07882324  0.12976169     0.12800
H2448       H  0.89885795  0.58014083  0.11373626     0.14800
C2449       C  0.62828220  0.73004211  0.30131504    -0.05200
C2450       C  0.68158759  0.73749220  0.30346825    -0.05200
C2451       C  0.70500121  0.73974679  0.32472323    -0.23300
C2452       C  0.67399362  0.73157594  0.34406978     0.18900
C2453       C  0.62059282  0.72465147  0.34202414     0.16100
C2454       C  0.59912411  0.72598427  0.32069369    -0.18400
C2455       C  0.58784800  0.71281630  0.36118508    -0.20200
C2456       C  0.60619618  0.70459833  0.38196440    -0.12800
C2457       C  0.65858414  0.70998601  0.38411057     0.03900
C2458       C  0.69370548  0.72666756  0.36525344    -0.24900
H2459       H  0.70378843  0.73899969  0.28870014     0.09000
H2460       H  0.74531157  0.74382393  0.32597808     0.12600
H2461       H  0.55719081  0.71866968  0.31906981     0.12500
H2462       H  0.54686953  0.70750772  0.35992362     0.12300
H2463       H  0.57869531  0.69252096  0.39626371     0.12800
H2464       H  0.73527902  0.73339136  0.36690599     0.14800
C2465       C  0.63961155  0.73026418  0.11192132    -0.05200
C2466       C  0.58476814  0.71778403  0.11501565    -0.05200
C2467       C  0.56754539  0.71967663  0.13644106    -0.23300
C2468       C  0.60478186  0.73395282  0.15499890     0.18900
C2469       C  0.66115574  0.74933703  0.15184551     0.16100
C2470       C  0.67900931  0.74978510  0.13012705    -0.18400
C2471       C  0.69664118  0.75869531  0.17059951    -0.20200
C2472       C  0.67522902  0.74989089  0.19228378    -0.12800
C2473       C  0.61942433  0.73507202  0.19541757     0.03900
C2474       C  0.58514539  0.72898815  0.17676040    -0.24900
H2475       H  0.55388214  0.70234241  0.10121097     0.09000
H2476       H  0.52391475  0.70636762  0.13867980     0.12600
H2477       H  0.72146439  0.75937684  0.12768770     0.12500
H2478       H  0.73954718  0.76937018  0.16844511     0.12300
H2479       H  0.70149897  0.75314049  0.20652726     0.12800
H2480       H  0.54151642  0.71613297  0.17920181     0.14800
C2481       C  0.84119755  0.77079436  0.88841504    -0.05200
C2482       C  0.82579317  0.71975965  0.87944988    -0.05200
C2483       C  0.84078140  0.71786015  0.85745415    -0.23300
C2484       C  0.86808983  0.76607728  0.84393738     0.18900
C2485       C  0.88664641  0.81765106  0.85378768     0.16100
C2486       C  0.87709245  0.82008221  0.87636171    -0.18400
C2487       C  0.90912109  0.86533048  0.84055605    -0.20200
C2488       C  0.91227745  0.86213724  0.81761214    -0.12800
C2489       C  0.89607935  0.81191657  0.80735095     0.03900
C2490       C  0.87481649  0.76376547  0.82069985    -0.24900
H2491       H  0.79898076  0.68125543  0.88878636     0.09000
H2492       H  0.82780921  0.67839056  0.85062022     0.12600
H2493       H  0.88979474  0.85956160  0.88354232     0.12500
H2494       H  0.92228331  0.90481447  0.84782597     0.12300
H2495       H  0.92965668  0.90023511  0.80795470     0.12800
H2496       H  0.86203981  0.72484583  0.81300859     0.14800
C2497       C  0.58730780  0.91751238  0.79788599    -0.05200
C2498       C  0.63093791  0.90888917  0.80092206    -0.05200
C2499       C  0.65417499  0.91242831  0.82229502    -0.23300
C2500       C  0.63279373  0.92270506  0.84098982     0.18900
C2501       C  0.58921860  0.93195167  0.83793874     0.16100
C2502       C  0.56791977  0.93074269  0.81637132    -0.18400
C2503       C  0.56728740  0.94183537  0.85652739    -0.20200
C2504       C  0.59113754  0.94646162  0.87778284    -0.12800
C2505       C  0.63688440  0.94094582  0.88074142     0.03900
C2506       C  0.65556073  0.92599672  0.86256182    -0.24900
H2507       H  0.64556609  0.89751142  0.78687377     0.09000
H2508       H  0.68780995  0.90584625  0.82429564     0.12600
H2509       H  0.53353529  0.93643059  0.81416231     0.12500
H2510       H  0.53350077  0.94842654  0.85450323     0.12300
H2511       H  0.57683081  0.95853447  0.89171257     0.12800
H2512       H  0.69096541  0.92186987  0.86491845     0.14800
C2513       C  0.66505200  0.94452356  0.62066998    -0.05200
C2514       C  0.66422237  0.90109089  0.63166515    -0.05200
C2515       C  0.63654525  0.88049694  0.65213561    -0.23300
C2516       C  0.61067878  0.90374442  0.66197741     0.18900
C2517       C  0.60934116  0.94578619  0.65041542     0.16100
C2518       C  0.63407286  0.96390323  0.62936536    -0.18400
C2519       C  0.58592787  0.97106180  0.66054827    -0.20200
C2520       C  0.56400581  0.95479451  0.68201740    -0.12800
C2521       C  0.56398708  0.91211403  0.69355016     0.03900
C2522       C  0.58722243  0.88650555  0.68336762    -0.24900
H2523       H  0.68695398  0.88497144  0.62488434     0.09000
H2524       H  0.63698559  0.84803746  0.66086876     0.12600
H2525       H  0.63349431  0.99653463  0.62057048     0.12500
H2526       H  0.58527577  0.00390684  0.65201440     0.12300
H2527       H  0.54576525  0.97488723  0.68936133     0.12800
H2528       H  0.58746177  0.85364710  0.69211034     0.14800
C2529       C  0.86202673  0.78384757  0.69761042    -0.05200
C2530       C  0.80668129  0.77027394  0.69358939    -0.05200
C2531       C  0.78514205  0.76240496  0.67156934    -0.23300
C2532       C  0.82008542  0.77157231  0.65341797     0.18900
C2533       C  0.87614302  0.78585929  0.65748608     0.16100
C2534       C  0.89579703  0.78964191  0.67957313    -0.18400
C2535       C  0.91299728  0.80006949  0.63948764    -0.20200
C2536       C  0.89566379  0.80379146  0.61774621    -0.12800
C2537       C  0.84068600  0.79149176  0.61369850     0.03900
C2538       C  0.80175524  0.77135130  0.63135161    -0.24900
H2539       H  0.78095933  0.76730908  0.70733661     0.09000
H2540       H  0.74250846  0.75252720  0.66865670     0.12600
H2541       H  0.93934451  0.80186726  0.68273282     0.12500
H2542       H  0.95622332  0.81128748  0.64238588     0.12300
H2543       H  0.92596483  0.81867313  0.60427620     0.12800
H2544       H  0.75853997  0.75974077  0.62808997     0.14800
C2545       C  0.54680572  0.72250623  0.87884573    -0.05200
C2546       C  0.58563531  0.77252447  0.86740586    -0.05200
C2547       C  0.60736716  0.77175745  0.84658614    -0.23300
C2548       C  0.58897623  0.72084469  0.83643020     0.18900
C2549       C  0.55158221  0.67067144  0.84829788     0.16100
C2550       C  0.53352031  0.67212963  0.86980209    -0.18400
C2551       C  0.53034740  0.61946668  0.83808521    -0.20200
C2552       C  0.54537669  0.61764762  0.81623546    -0.12800
C2553       C  0.58372585  0.66690152  0.80419414     0.03900
C2554       C  0.60609290  0.71879667  0.81457186    -0.24900
H2555       H  0.09714795  0.81187164  0.87413875     0.09000
H2556       H  0.63656677  0.81073989  0.83798839     0.12600
H2557       H  0.50505913  0.63337654  0.87877087     0.12500
H2558       H  0.50107200  0.58059319  0.84685232     0.12300
H2559       H  0.52800940  0.57713184  0.80896256     0.12800
H2560       H  0.63575830  0.75716702  0.80559013     0.14800
C2561       C  0.68852552  0.58501386  0.80031055    -0.05200
C2562       C  0.74292823  0.59710422  0.80535729    -0.05200
C2563       C  0.75613865  0.58876792  0.82712445    -0.23300
C2564       C  0.71632855  0.57121791  0.84427113     0.18900
C2565       C  0.66131643  0.55879806  0.83912323     0.16100
C2566       C  0.64753812  0.56485420  0.81710998    -0.18400
C2567       C  0.62087811  0.54026746  0.85602979    -0.20200
C2568       C  0.63368384  0.53078043  0.87763851    -0.12800
C2569       C  0.68729107  0.54066888  0.88261792     0.03900
C2570       C  0.72962012  0.56372496  0.86626216    -0.24900
H2571       H  0.77513069  0.61337340  0.79255998     0.09000
H2572       H  0.79772206  0.59694005  0.83063409     0.12600
H2573       H  0.60575507  0.55649008  0.81323386     0.12500
H2574       H  0.57862395  0.53085262  0.85231472     0.12300
H2575       H  0.69088687  0.10253522  0.89618773     0.12800
H2576       H  0.77085898  0.57093057  0.87019055     0.14800
C2577       C  0.74620797  0.56656620  0.62038168    -0.05200
C2578       C  0.73392890  0.60684478  0.61807188    -0.05200
C2579       C  0.72381565  0.62748453  0.63692060    -0.23300
C2580       C  0.72494722  0.60771845  0.65843296     0.18900
C2581       C  0.74011417  0.56945019  0.66115713     0.16100
C2582       C  0.75347956  0.55129244  0.64219457    -0.18400
C2583       C  0.73774480  0.54717586  0.68257793    -0.20200
C2584       C  0.71969853  0.56215630  0.70100592    -0.12800
C2585       C  0.70500592  0.60051541  0.69837963     0.03900
C2586       C  0.70832305  0.62344233  0.67709633    -0.24900
H2587       H  0.72786748  0.61931640  0.60160073     0.09000
H2588       H  0.71142590  0.65618808  0.63454522     0.12600
H2589       H  0.76409961  0.52112414  0.64424868     0.12500
H2590       H  0.74816502  0.51693031  0.68493970     0.12300
H2591       H  0.71672351  0.54347718  0.71726315     0.12800
H2592       H  0.69561228  0.65171470  0.67488605     0.14800
C2593       C  0.56031759  0.73346806  0.61888820    -0.05200
C2594       C  0.59915038  0.71820003  0.61861814    -0.05200
C2595       C  0.61859241  0.70815177  0.63857493    -0.23300
C2596       C  0.59867972  0.71217150  0.65913902     0.18900
C2597       C  0.56263509  0.73100382  0.65985398     0.16100
C2598       C  0.54604811  0.74435515  0.63967970    -0.18400
C2599       C  0.54140552  0.73298074  0.68059879    -0.20200
C2600       C  0.55544206  0.71576019  0.70033582    -0.12800
C2601       C  0.59177642  0.69772839  0.69946830     0.03900
C2602       C  0.61355901  0.69663831  0.67895110    -0.24900
H2603       H  0.61104699  0.70970489  0.60294823     0.09000
H2604       H  0.64683952  0.69440267  0.63787599     0.12600
H2605       H  0.51740865  0.75769970  0.64007261     0.12500
H2606       H  0.51290555  0.74640946  0.68144811     0.12300
H2607       H  0.53799097  0.71635246  0.71615112     0.12800
H2608       H  0.64091316  0.68206738  0.67840818     0.14800
C2609       C  0.88589810  0.57935214  0.79958351    -0.05200
C2610       C  0.91139390  0.63675207  0.79707104    -0.05200
C2611       C  0.92603181  0.67016723  0.81602603    -0.23300
C2612       C  0.91377450  0.64601310  0.83755234     0.18900
C2613       C  0.88653947  0.58779163  0.83993494     0.16100
C2614       C  0.87373444  0.55514625  0.82096085    -0.18400
C2615       C  0.87320829  0.56319399  0.86127154    -0.20200
C2616       C  0.88956222  0.59614169  0.88026999    -0.12800
C2617       C  0.92064209  0.65432334  0.87818172     0.03900
C2618       C  0.93021074  0.67900885  0.85678359    -0.24900
H2619       H  0.92052834  0.65564265  0.78052278     0.09000
H2620       H  0.94707883  0.71471862  0.81388075     0.12600
H2621       H  0.85431103  0.51085719  0.82278651     0.12500
H2622       H  0.85267129  0.51889724  0.86334594     0.12300
H2623       H  0.88237533  0.57662997  0.89664376     0.12800
H2624       H  0.95417301  0.72403467  0.85521016     0.14800
C2625       C  0.77576198  0.86713838  0.80046197    -0.05200
C2626       C  0.76640084  0.81436784  0.80114495    -0.05200
C2627       C  0.75606087  0.78569358  0.82164107    -0.23300
C2628       C  0.75887659  0.81117132  0.84187825     0.18900
C2629       C  0.76857499  0.86435073  0.84114061     0.16100
C2630       C  0.77459391  0.89076093  0.82044399    -0.18400
C2631       C  0.77608682  0.89213379  0.86113190    -0.20200
C2632       C  0.77864051  0.86971628  0.88164521    -0.12800
C2633       C  0.77016497  0.81718049  0.88288398     0.03900
C2634       C  0.75631795  0.78648595  0.86283795    -0.24900
H2635       H  0.76833439  0.79597502  0.78592012     0.09000
H2636       H  0.74940697  0.74521993  0.82178904     0.12600
H2637       H  0.78266250  0.93174817  0.81998516     0.12500
H2638       H  0.78341655  0.93282993  0.86081481     0.12300
H2639       H  0.78954585  0.89485164  0.89649633     0.12800
H2640       H  0.74764395  0.74520113  0.86339742     0.14800
C2641       C  0.93381882  0.66009040  0.61873438    -0.05200
C2642       C  0.90004878  0.67311910  0.62991255    -0.05200
C2643       C  0.88231656  0.65387594  0.65190551    -0.23300
C2644       C  0.89793811  0.62110281  0.66291567     0.18900
C2645       C  0.93080784  0.60705670  0.65131954     0.16100
C2646       C  0.94596631  0.62423046  0.62907668    -0.18400
C2647       C  0.95125992  0.57900126  0.66250634    -0.20200
C2648       C  0.93779244  0.56312078  0.68479696    -0.12800
C2649       C  0.90133239  0.57251253  0.69620863     0.03900
C2650       C  0.88208619  0.60247546  0.68526110    -0.24900
H2651       H  0.88982668  0.70023611  0.62200514     0.09000
H2652       H  0.85784773  0.66590342  0.66048681     0.12600
H2653       H  0.97215150  0.61422171  0.62046225     0.12500
H2654       H  0.97827940  0.56981893  0.65407483     0.12300
H2655       H  0.95399121  0.54089102  0.69280084     0.12800
H2656       H  0.85525681  0.61126298  0.69406531     0.14800
C2657       C  0.79683412  0.88797336  0.69373545    -0.05200
C2658       C  0.74105288  0.85415591  0.68464210    -0.05200
C2659       C  0.73238713  0.84354976  0.66158059    -0.23300
C2660       C  0.77873523  0.86828564  0.64706709     0.18900
C2661       C  0.83501984  0.90248619  0.65604703     0.16100
C2662       C  0.84369103  0.91090632  0.67931302    -0.18400
C2663       C  0.88165827  0.92686284  0.64163325    -0.20200
C2664       C  0.87266121  0.91365093  0.61883398    -0.12800
C2665       C  0.81696732  0.87605374  0.61005773     0.03900
C2666       C  0.76989394  0.85644015  0.62395620    -0.24900
H2667       H  0.70423784  0.83657284  0.69531023     0.09000
H2668       H  0.68952122  0.81620433  0.65491269     0.12600
H2669       H  0.88696581  0.93730068  0.68608805     0.12500
H2670       H  0.92517489  0.95358742  0.64818330     0.12300
H2671       H  0.90947073  0.92847978  0.60844226     0.12800
H2672       H  0.72695113  0.82651379  0.61738837     0.14800
loop_ 
_geom_bond_atom_site_label_1 
_geom_bond_atom_site_label_2 
_geom_bond_distance 
_geom_bond_site_symmetry_2 
_ccdc_geom_bond_type 
O1           Ni7   1.969   1_554  S
O1           C22   1.294       .  A
O2          Ni25   1.937       .  S
O2           C11   1.297       .  A
O3           Ni7   1.784       .  S
O3          Ni25   1.878       .  S
O3          Ni19   1.841   1_556  S
O3           H26   0.965   1_556  S
C4           O21   1.295       .  A
C4           O13   1.306       .  A
C4          C278   1.484       .  S
O5          Ni24   1.961   1_556  S
O5           C11   1.299       .  A
O6          Ni24   1.938       .  S
O6            C8   1.272       .  A
Ni7          O10   2.011       .  S
Ni7          O12   1.956       .  S
C8           O18   1.272       .  A
C8          C245   1.487       .  S
O9          Ni25   1.870       .  S
O9           C15   1.293       .  A
O10          C15   1.318       .  A
C11         C135   1.501       .  S
O12          C14   1.281       .  A
O13         Ni24   1.983       .  S
C14          O20   1.269       .  A
C14         C112   1.478       .  S
C15         C127   1.469       .  S
H16          O17   0.966       .  S
O17         Ni25   1.868       .  S
O17         Ni19   1.825   1_556  S
O17         Ni24   1.827   1_556  S
O18         Ni19   1.932       .  S
Ni19         O23   1.908       .  S
Ni19         O21   1.902       .  S
O20         Ni25   1.896       .  S
C22          O23   1.288       .  A
C22         C261   1.483       .  S
O27         Ni33   1.953       .  S
O27          C48   1.298       .  A
O28         Ni51   1.883       .  S
O28          C37   1.280       .  A
O29         Ni33   1.829       .  S
O29         Ni51   1.820       .  S
O29         Ni45   1.874       .  S
O29          H52   0.967       .  S
C30          O47   1.294       .  A
C30          O39   1.315       .  A
C30         C269   1.473       .  S
O31         Ni50   1.963       .  S
O31          C37   1.294       .  A
O32         Ni50   1.953       .  S
O32          C34   1.283       .  A
Ni33         O36   1.986       .  S
Ni33         O38   1.932       .  S
C34          O44   1.275       .  A
C34         C254   1.487       .  S
O35         Ni51   1.908       .  S
O35          C41   1.294       .  A
O36          C41   1.306       .  A
C37         C120   1.475       .  S
O38          C40   1.269       .  A
O39         Ni50   2.002       .  S
C40          O46   1.263       .  A
C40          C95   1.473       .  S
C41         C104   1.486       .  S
H42          O43   0.965       .  S
O43         Ni51   1.849       .  S
O43         Ni45   1.873       .  S
O43         Ni50   1.782       .  S
O44         Ni45   1.904       .  S
Ni45         O49   1.926       .  S
Ni45         O47   1.874       .  S
O46         Ni51   1.908       .  S
C48          O49   1.297       .  A
C48         C223   1.484       .  S
O53         Ni61   1.913       .  S
O53          C63   1.280       .  A
O54        Ni729   1.912   1_545  S
O54          C64   1.279       .  A
O55        Ni729   1.924   1_545  S
O55          C65   1.282       .  A
O56         Ni61   1.942       .  S
O56          C66   1.287       .  A
O57         Ni62   1.909       .  S
O57          C66   1.277       .  A
O58        Ni730   1.901   1_545  S
O58          C65   1.280       .  A
O59        Ni730   1.919   1_545  S
O59          C64   1.281       .  A
O60         Ni62   1.911       .  S
O60          C63   1.281       .  A
Ni61        O722   1.910       .  S
Ni61        O723   1.940       .  S
Ni61        Ni62   2.389       .  S
Ni62        O726   1.903       .  S
Ni62        O727   1.918       .  S
C63         C653   1.468       .  S
C64         C605   1.461       .  S
C65         C645   1.470       .  S
C66         C621   1.478       .  S
O67         Ni75   1.905       .  S
O67          C77   1.277       .  A
O68         Ni75   1.913       .  S
O68          C78   1.282       .  A
O69         Ni75   1.921       .  S
O69          C79   1.282       .  A
O70         Ni75   1.911       .  S
O70          C80   1.280       .  A
O71         Ni76   1.902       .  S
O71          C80   1.277       .  A
O72         Ni76   1.907       .  S
O72          C79   1.277       .  A
O73         Ni76   1.939       .  S
O73          C78   1.285       .  A
O74         Ni76   1.937       .  S
O74          C77   1.285       .  A
Ni75        Ni76   2.392       .  S
C77         C581   1.471       .  S
C78         C549   1.492       .  S
C79         C597   1.460       .  S
C80         C557   1.451       .  S
O81         Ni89   1.923   1_455  S
O81          C91   1.283       .  A
O82       Ni1425   1.918       .  S
O82          C92   1.281       .  A
O83       Ni1425   1.878       .  S
O83          C93   1.275       .  A
O84         Ni89   1.877   1_455  S
O84          C94   1.273       .  A
O85       Ni1426   1.927   1_455  S
O85          C94   1.286       .  A
O86         Ni90   1.937       .  S
O86          C93   1.285       .  A
O87         Ni90   1.903       .  S
O87          C92   1.277       .  A
O88       Ni1426   1.894   1_455  S
O88          C91   1.274       .  A
Ni89       O1418   1.918       .  S
Ni89       O1419   1.878       .  S
Ni89      Ni1426   2.390       .  S
Ni90       O1421   1.927       .  S
Ni90       O1424   1.894       .  S
Ni90      Ni1425   2.390       .  S
C91         C493   1.452       .  S
C92         C525   1.457       .  S
C93         C485   1.474       .  S
C94         C517   1.462       .  S
C95         C100   1.405       .  A
C95        C1432   1.415       .  A
C96         C157   1.469       .  S
C96          C97   1.404       .  A
C96        C1431   1.415   1_455  A
C97          C98   1.397       .  A
C97         H102   1.086       .  S
C98         C589   1.486       .  S
C98        C1435   1.417   1_455  A
C99         C637   1.478       .  S
C99         C100   1.394       .  A
C99        C1434   1.417       .  A
C100        H101   1.081       .  S
C103        C153   1.483       .  S
C103        C108   1.407       .  A
C103        C772   1.420       .  A
C104        C105   1.412       .  A
C104        C771   1.419   1_545  A
C105        C106   1.400       .  A
C105        H110   1.081       .  S
C106        C573   1.494       .  S
C106        C775   1.413   1_545  A
C107        C509   1.472       .  S
C107        C108   1.392       .  A
C107        C774   1.414       .  A
C108        H109   1.085       .  S
C111        C179   1.486       .  S
C111        C112   1.414       .  A
C111        C116   1.410       .  A
C112        C113   1.410       .  A
C113        C114   1.404       .  A
C113        H118   1.084       .  S
C114        C477   1.475       .  S
C114        C115   1.422       .  A
C115        C629   1.513       .  S
C115        C116   1.399       .  A
C116        H117   1.082       .  S
C119        C156   1.474       .  S
C119        C120   1.415       .  A
C119        C124   1.410       .  A
C120        C121   1.407       .  A
C121        C122   1.388       .  A
C121        H126   1.085       .  S
C122        C533   1.483       .  S
C122        C123   1.412       .  A
C123        C661   1.474       .  S
C123        C124   1.401       .  A
C124        H125   1.084       .  S
C127        C132   1.401       .  A
C127        C796   1.423   1_545  A
C128        C182   1.474       .  S
C128        C129   1.405       .  A
C128        C795   1.426       .  A
C129        C130   1.391       .  A
C129        H134   1.086       .  S
C130        C501   1.470       .  S
C130        C799   1.407       .  A
C131        C565   1.478       .  S
C131        C132   1.390       .  A
C131        C798   1.411   1_545  A
C132        H133   1.087       .  S
C135        C140   1.412       .  A
C135       C1472   1.424       .  A
C136        C183   1.489       .  S
C136        C137   1.424       .  A
C136       C1471   1.424   1_455  A
C137        C138   1.399       .  A
C137        H142   1.084       .  S
C138        C541   1.503       .  S
C138       C1475   1.413   1_455  A
C139        C613   1.479       .  S
C139        C140   1.404       .  A
C139       C1474   1.413       .  A
C140        H141   1.084       .  S
O143       Ni149   1.963       .  S
O143        C164   1.292       .  A
O144       Ni167   1.924       .  S
O144        C153   1.297       .  A
O145       Ni149   1.790       .  S
O145       Ni167   1.872       .  S
O145       Ni161   1.850       .  S
O145        H168   0.965       .  S
C146        O163   1.294       .  A
C146        O155   1.307       .  A
C146        C224   1.494       .  S
O147       Ni166   1.943       .  S
O147        C153   1.296       .  A
O148       Ni166   1.922       .  S
O148        C150   1.267       .  A
Ni149       O152   2.000       .  S
Ni149       O154   1.944       .  S
C150        O160   1.269       .  A
C150        C270   1.473       .  S
O151       Ni167   1.869       .  S
O151        C157   1.294       .  A
O152        C157   1.313       .  A
O154        C156   1.280       .  A
O155       Ni166   1.987       .  S
C156        O162   1.272       .  A
H158        O159   0.967       .  S
O159       Ni167   1.870       .  S
O159       Ni161   1.814       .  S
O159       Ni166   1.826       .  S
O160       Ni161   1.923       .  S
Ni161       O165   1.879       .  S
Ni161       O163   1.909       .  S
O162       Ni167   1.895       .  S
C164        O165   1.281       .  A
C164        C253   1.474       .  S
O169       Ni175   1.942   1_554  S
O169        C190   1.295       .  A
O170       Ni193   1.876       .  S
O170        C179   1.279       .  A
O171       Ni175   1.826       .  S
O171       Ni193   1.812       .  S
O171       Ni187   1.866   1_556  S
O171        H194   0.966   1_556  S
C172        O189   1.295       .  A
C172        O181   1.321       .  A
C172        C246   1.480       .  S
O173       Ni192   1.982   1_556  S
O173        C179   1.298       .  A
O174       Ni192   1.955       .  S
O174        C176   1.280       .  A
Ni175       O178   1.991       .  S
Ni175       O180   1.920       .  S
C176        O186   1.272       .  A
C176        C262   1.478       .  S
O177       Ni193   1.896       .  S
O177        C183   1.289       .  A
O178        C183   1.307       .  A
O180        C182   1.267       .  A
O181       Ni192   2.022       .  S
C182        O188   1.271       .  A
H184        O185   0.965       .  S
O185       Ni193   1.843       .  S
O185       Ni187   1.871   1_556  S
O185       Ni192   1.786   1_556  S
O186       Ni187   1.899       .  S
Ni187       O191   1.933       .  S
Ni187       O189   1.874       .  S
O188       Ni193   1.924       .  S
C190        O191   1.299       .  A
C190        C277   1.482       .  S
O195      Ni1539   1.921       .  S
O195        C205   1.281       .  A
O196       Ni203   1.924       .  S
O196        C206   1.283       .  A
O197       Ni203   1.917       .  S
O197        C207   1.281       .  A
O198      Ni1539   1.910       .  S
O198        C208   1.281       .  A
O199      Ni1540   1.915       .  S
O199        C208   1.282       .  A
O200       Ni204   1.908       .  S
O200        C207   1.278       .  A
O201       Ni204   1.908       .  S
O201        C206   1.278       .  A
O202      Ni1540   1.916       .  S
O202        C205   1.283       .  A
Ni203      O1531   1.921   1_455  S
Ni203      O1534   1.910   1_455  S
Ni203      Ni204   2.392       .  S
Ni204      O1535   1.915   1_455  S
Ni204      O1538   1.916   1_455  S
C205        C429   1.479       .  S
C206        C445   1.465       .  S
C207        C469   1.461       .  S
C208        C421   1.474       .  S
O209       Ni217   1.923       .  S
O209        C219   1.282       .  A
O210       Ni217   1.919       .  S
O210        C220   1.280       .  A
O211       Ni217   1.918       .  S
O211        C221   1.281       .  A
O212       Ni217   1.922       .  S
O212        C222   1.282       .  A
O213       Ni218   1.907       .  S
O213        C222   1.280       .  A
O214       Ni218   1.899       .  S
O214        C221   1.276       .  A
O215       Ni218   1.909       .  S
O215        C220   1.279       .  A
O216       Ni218   1.918       .  S
O216        C219   1.283       .  A
Ni217      Ni218   2.391       .  S
C219        C381   1.487       .  S
C220        C365   1.459       .  S
C221        C357   1.453       .  S
C222        C405   1.478       .  S
C223        C228   1.414       .  A
C223        C892   1.426   1_545  A
C224        C225   1.421       .  A
C224        C891   1.428       .  A
C225        C226   1.397       .  A
C225        H230   1.084       .  S
C226        C389   1.493       .  S
C226        C895   1.408       .  A
C227        C413   1.478       .  S
C227        C228   1.393       .  A
C227        C894   1.406   1_545  A
C228        H229   1.085       .  S
O231       Ni907   1.918       .  S
O231        C241   1.280       .  A
O232       Ni239   1.914       .  S
O232        C242   1.281       .  A
O233       Ni239   1.914       .  S
O233        C243   1.281       .  A
O234       Ni907   1.906       .  S
O234        C244   1.278       .  A
O235       Ni240   1.902       .  S
O235        C244   1.278       .  A
O236       Ni908   1.913       .  S
O236        C243   1.282       .  A
O237       Ni908   1.909       .  S
O237        C242   1.281       .  A
O238       Ni240   1.905       .  S
O238        C241   1.278       .  A
Ni239       O899   1.910   1_545  S
Ni239       O902   1.906   1_545  S
Ni239      Ni908   2.392       .  S
Ni240       O904   1.911       .  S
Ni240       O905   1.910       .  S
Ni240      Ni907   2.393       .  S
C241        C285   1.455       .  S
C242        C333   1.476       .  S
C243        C317   1.474       .  S
C244        C309   1.446       .  S
C245        C250   1.414       .  A
C245        C914   1.432   1_545  A
C246        C247   1.407       .  A
C246        C913   1.430       .  A
C247        C248   1.393       .  A
C247        H252   1.086       .  S
C248        C397   1.477       .  S
C248        C917   1.408       .  A
C249        C437   1.485       .  S
C249        C250   1.399       .  A
C249        C916   1.409   1_545  A
C250        H251   1.083       .  S
C253        C254   1.420       .  A
C253        C258   1.405       .  A
C254        C255   1.417       .  A
C255        C256   1.409       .  A
C255        H260   1.084       .  S
C256        C325   1.475       .  S
C256        C257   1.410       .  A
C257        C453   1.485       .  S
C257        C258   1.381       .  A
C258        H259   1.085       .  S
C261        C262   1.425       .  A
C261        C266   1.413       .  A
C262        C263   1.409       .  A
C263        C264   1.394       .  A
C263        H268   1.085       .  S
C264        C461   1.477       .  S
C264        C265   1.409       .  A
C265        C341   1.482       .  S
C265        C266   1.396       .  A
C266        H267   1.085       .  S
C269        C274   1.404       .  A
C269       C1606   1.421       .  A
C270        C271   1.405       .  A
C270       C1605   1.421   1_455  A
C271        C272   1.397       .  A
C271        H276   1.086       .  S
C272        C293   1.475       .  S
C272       C1609   1.411   1_455  A
C273        C349   1.477       .  S
C273        C274   1.394       .  A
C273       C1608   1.410       .  A
C274        H275   1.086       .  S
C277        C282   1.410       .  A
C277       C1614   1.424   1_455  A
C278        C279   1.412       .  A
C278       C1613   1.424       .  A
C279        C280   1.390       .  A
C279        H284   1.084       .  S
C280        C373   1.477       .  S
C280       C1617   1.406       .  A
C281        C301   1.472       .  S
C281        C282   1.393       .  A
C281       C1616   1.406   1_455  A
C282        H283   1.085       .  S
C285        C286   1.399       .  A
C285        C290   1.398       .  A
C286        C287   1.399       .  A
C286        H295   1.083       .  S
C287        C288   1.405       .  A
C287        H296   1.080       .  S
C288        C294   1.401       .  A
C288        C289   1.414       .  A
C289        C291   1.400       .  A
C289        C290   1.394       .  A
C290        H297   1.084       .  S
C291        C292   1.392       .  A
C291        H298   1.083       .  S
C292        C293   1.402       .  A
C292        H299   1.083       .  S
C293        C294   1.403       .  A
C294       H1636   1.082       .  S
H300       C1630   1.082       .  S
C301        C302   1.402       .  A
C301        C306   1.396       .  A
C302        C303   1.396       .  A
C302       H1647   1.083       .  S
C303        C304   1.402       .  A
C303       H1648   1.084       .  S
C304        C310   1.395       .  A
C304        C305   1.413       .  A
C305        C307   1.402       .  A
C305        C306   1.392       .  A
C306        H313   1.076       .  S
C307        C308   1.392       .  A
C307        H314   1.078       .  S
C308        C309   1.396       .  A
C308        H315   1.083       .  S
C309        C310   1.400       .  A
C310        H316   1.085       .  S
H311       C1638   1.083       .  S
H312       C1639   1.084       .  S
C317        C318   1.403       .  A
C317        C322   1.406       .  A
C318        C319   1.399       .  A
C318        H327   1.082       .  S
C319        C320   1.399       .  A
C319        H328   1.078       .  S
C320        C326   1.405       .  A
C320        C321   1.413       .  A
C321        C323   1.400       .  A
C321        C322   1.401       .  A
C322        H329   1.084       .  S
C323        C324   1.394       .  A
C323        H330   1.083       .  S
C324        C325   1.405       .  A
C324        H331   1.084       .  S
C325        C326   1.402       .  A
C326        H332   1.085       .  S
C333        C334   1.404       .  A
C333        C338   1.407       .  A
C334        C335   1.398       .  A
C334        H343   1.082       .  S
C335        C336   1.399       .  A
C335        H344   1.078       .  S
C336        C342   1.405       .  A
C336        C337   1.412       .  A
C337        C339   1.400       .  A
C337        C338   1.401       .  A
C338        H345   1.084       .  S
C339        C340   1.395       .  A
C339        H346   1.082       .  S
C340        C341   1.405       .  A
C340        H347   1.083       .  S
C341        C342   1.404       .  A
C342        H348   1.085       .  S
C349        C350   1.403       .  A
C349        C354   1.402       .  A
C350        C351   1.394       .  A
C350        H359   1.083       .  S
C351        C352   1.401       .  A
C351        H360   1.084       .  S
C352        C358   1.395       .  A
C352        C353   1.414       .  A
C353        C355   1.404       .  A
C353        C354   1.399       .  A
C354        H361   1.083       .  S
C355        C356   1.398       .  A
C355        H362   1.083       .  S
C356        C357   1.400       .  A
C356        H363   1.083       .  S
C357        C358   1.399       .  A
C358        H364   1.085       .  S
C365        C366   1.400       .  A
C365        C370   1.400       .  A
C366        C367   1.398       .  A
C366        H375   1.083       .  S
C367        C368   1.403       .  A
C367        H376   1.081       .  S
C368        C374   1.401       .  A
C368        C369   1.415       .  A
C369        C371   1.401       .  A
C369        C370   1.398       .  A
C370        H377   1.085       .  S
C371        C372   1.395       .  A
C371        H378   1.084       .  S
C372        C373   1.402       .  A
C372        H379   1.083       .  S
C373        C374   1.402       .  A
C374        H380   1.084       .  S
C381        C382   1.407       .  A
C381        C386   1.411       .  A
C382        C383   1.395       .  A
C382        H391   1.083       .  S
C383        C384   1.399       .  A
C383        H392   1.083       .  S
C384        C390   1.404       .  A
C384        C385   1.412       .  A
C385        C387   1.404       .  A
C385        C386   1.411       .  A
C386        H393   1.084       .  S
C387        C388   1.404       .  A
C387        H394   1.080       .  S
C388        C389   1.400       .  A
C388        H395   1.078       .  S
C389        C390   1.405       .  A
C390        H396   1.084       .  S
C397        C398   1.401       .  A
C397        C402   1.400       .  A
C398        C399   1.400       .  A
C398        H407   1.081       .  S
C399        C400   1.403       .  A
C399        H408   1.081       .  S
C400        C406   1.407       .  A
C400        C401   1.414       .  A
C401        C403   1.397       .  A
C401        C402   1.399       .  A
C402        H409   1.085       .  S
C403        C404   1.392       .  A
C403        H410   1.084       .  S
C404        C405   1.407       .  A
C404        H411   1.083       .  S
C405        C406   1.407       .  A
C406        H412   1.084       .  S
C413        C414   1.401       .  A
C413        C418   1.403       .  A
C414        C415   1.397       .  A
C414        H423   1.082       .  S
C415        C416   1.401       .  A
C415        H424   1.080       .  S
C416        C422   1.402       .  A
C416        C417   1.413       .  A
C417        C419   1.401       .  A
C417        C418   1.400       .  A
C418       H1093   1.085       .  S
C419        C420   1.395       .  A
C419        H426   1.084       .  S
C420        C421   1.406       .  A
C420        H427   1.083       .  S
C421        C422   1.405       .  A
C422        H428   1.084       .  S
H425       C1086   1.085       .  S
C429        C430   1.405       .  A
C429        C434   1.410       .  A
C430        C431   1.391       .  A
C430        H439   1.083       .  S
C431        C432   1.397       .  A
C431        H440   1.083       .  S
C432        C438   1.398       .  A
C432        C433   1.413       .  A
C433        C435   1.407       .  A
C433        C434   1.412       .  A
C434        H441   1.084       .  S
C435       C1104   1.406       .  A
C435       H1110   1.083       .  S
C436       C1103   1.403       .  A
C436       C1105   1.404       .  A
C436        H443   1.083       .  S
C437        C438   1.401       .  A
C437       C1104   1.405       .  A
C438        H444   1.085       .  S
H442       C1103   1.082       .  S
C445        C446   1.401       .  A
C445        C450   1.404       .  A
C446        C447   1.400       .  A
C446        H455   1.082       .  S
C447        C448   1.405       .  A
C447        H456   1.082       .  S
C448        C454   1.401       .  A
C448        C449   1.412       .  A
C449        C451   1.404       .  A
C449        C450   1.399       .  A
C450        H457   1.085       .  S
C451        C452   1.397       .  A
C451        H458   1.084       .  S
C452        C453   1.403       .  A
C452        H459   1.083       .  S
C453        C454   1.406       .  A
C454        H460   1.084       .  S
C461        C462   1.400       .  A
C461        C466   1.407       .  A
C462        C463   1.395       .  A
C462        H471   1.083       .  S
C463        C464   1.403       .  A
C463        H472   1.084       .  S
C464        C470   1.396       .  A
C464        C465   1.412       .  A
C465        C467   1.406       .  A
C465        C466   1.400       .  A
C466        H473   1.085       .  S
C467        C468   1.400       .  A
C467        H474   1.083       .  S
C468        C469   1.399       .  A
C468        H475   1.081       .  S
C469        C470   1.401       .  A
C470        H476   1.085       .  S
C477        C478   1.405       .  A
C477        C482   1.394       .  A
C478        C479   1.403       .  A
C478        H487   1.082       .  S
C479        C480   1.405       .  A
C479        H488   1.082       .  S
C480        C486   1.410       .  A
C480        C481   1.416       .  A
C481        C483   1.390       .  A
C481        C482   1.390       .  A
C482        H489   1.086       .  S
C483        C484   1.380       .  A
C483        H490   1.084       .  S
C484        C485   1.410       .  A
C484        H491   1.083       .  S
C485        C486   1.407       .  A
C486        H492   1.084       .  S
C493        C494   1.399       .  A
C493        C498   1.397       .  A
C494        C495   1.400       .  A
C494        H503   1.083       .  S
C495        C496   1.406       .  A
C495        H504   1.083       .  S
C496        C502   1.399       .  A
C496        C497   1.413       .  A
C497        C499   1.400       .  A
C497        C498   1.390       .  A
C498        H505   1.083       .  S
C499        C500   1.391       .  A
C499        H506   1.084       .  S
C500        C501   1.402       .  A
C500        H507   1.084       .  S
C501        C502   1.402       .  A
C502        H508   1.083       .  S
C509        C510   1.400       .  A
C509        C514   1.400       .  A
C510        C511   1.395       .  A
C510        H519   1.080       .  S
C511        C512   1.395       .  A
C511        H520   1.075       .  S
C512        C518   1.398       .  A
C512        C513   1.413       .  A
C513        C515   1.395       .  A
C513        C514   1.392       .  A
C514        H521   1.085       .  S
C515        C516   1.388       .  A
C515        H522   1.084       .  S
C516        C517   1.408       .  A
C516        H523   1.083       .  S
C517        C518   1.396       .  A
C518        H524   1.084       .  S
C525        C526   1.396       .  A
C525        C530   1.402       .  A
C526        C527   1.399       .  A
C526        H535   1.082       .  S
C527        C528   1.406       .  A
C527        H536   1.082       .  S
C528        C534   1.398       .  A
C528        C529   1.410       .  A
C529        C531   1.404       .  A
C529        C530   1.394       .  A
C530        H537   1.083       .  S
C531        C532   1.397       .  A
C531        H538   1.084       .  S
C532        C533   1.402       .  A
C532        H539   1.083       .  S
C533        C534   1.404       .  A
C534        H540   1.083       .  S
C541        C542   1.404       .  A
C541        C546   1.407       .  A
C542        C543   1.405       .  A
C542       H1887   1.076       .  S
C543        C544   1.406       .  A
C543        H552   1.082       .  S
C544        C550   1.415       .  A
C544        C545   1.414       .  A
C545        C547   1.398       .  A
C545        C546   1.405       .  A
C546        H553   1.084       .  S
C547        C548   1.394       .  A
C547        H554   1.084       .  S
C548        C549   1.409       .  A
C548        H555   1.083       .  S
C549        C550   1.412       .  A
C550        H556   1.083       .  S
H551       C1878   1.076       .  S
C557        C558   1.399       .  A
C557        C562   1.397       .  A
C558        C559   1.398       .  A
C558        H567   1.083       .  S
C559        C560   1.406       .  A
C559        H568   1.083       .  S
C560        C566   1.398       .  A
C560        C561   1.413       .  A
C561        C563   1.400       .  A
C561        C562   1.391       .  A
C562        H569   1.085       .  S
C563        C564   1.392       .  A
C563        H570   1.084       .  S
C564        C565   1.402       .  A
C564       H1239   1.083       .  S
C565        C566   1.403       .  A
C566        H572   1.083       .  S
H571       C1232   1.083       .  S
C573        C574   1.405       .  A
C573        C578   1.411       .  A
C574        C575   1.394       .  A
C574        H583   1.083       .  S
C575        C576   1.399       .  A
C575        H584   1.081       .  S
C576        C582   1.402       .  A
C576        C577   1.413       .  A
C577        C579   1.405       .  A
C577        C578   1.407       .  A
C578        H585   1.084       .  S
C579        C580   1.401       .  A
C579        H586   1.084       .  S
C580        C581   1.404       .  A
C580        H587   1.083       .  S
C581        C582   1.398       .  A
C582        H588   1.080       .  S
C589        C590   1.405       .  A
C589        C594   1.407       .  A
C590        C591   1.393       .  A
C590        H599   1.083       .  S
C591        C592   1.400       .  A
C591        H600   1.084       .  S
C592        C598   1.397       .  A
C592        C593   1.415       .  A
C593        C595   1.404       .  A
C593        C594   1.403       .  A
C594        H601   1.084       .  S
C595        C596   1.400       .  A
C595        H602   1.082       .  S
C596        C597   1.401       .  A
C596        H603   1.083       .  S
C597        C598   1.399       .  A
C598        H604   1.084       .  S
C605        C606   1.403       .  A
C605        C610   1.393       .  A
C606        C607   1.403       .  A
C606        H615   1.083       .  S
C607        C608   1.407       .  A
C607        H616   1.084       .  S
C608        C614   1.404       .  A
C608        C609   1.413       .  A
C609        C611   1.397       .  A
C609        C610   1.393       .  A
C610        H617   1.080       .  S
C611        C612   1.388       .  A
C611        H618   1.081       .  S
C612        C613   1.401       .  A
C612        H619   1.083       .  S
C613        C614   1.410       .  A
C614        H620   1.084       .  S
C621        C622   1.405       .  A
C621        C626   1.400       .  A
C622        C623   1.405       .  A
C622        H631   1.083       .  S
C623        C624   1.406       .  A
C623        H632   1.082       .  S
C624        C630   1.412       .  A
C624        C625   1.410       .  A
C625        C627   1.396       .  A
C625        C626   1.404       .  A
C626        H633   1.080       .  S
C627        C628   1.394       .  A
C627        H634   1.077       .  S
C628        C629   1.410       .  A
C628        H635   1.082       .  S
C629        C630   1.417       .  A
C630        H636   1.081       .  S
C637        C638   1.403       .  A
C637        C642   1.398       .  A
C638        C639   1.403       .  A
C638        H647   1.081       .  S
C639        C640   1.407       .  A
C639        H648   1.084       .  S
C640        C646   1.408       .  A
C640        C641   1.415       .  A
C641        C643   1.395       .  A
C641        C642   1.391       .  A
C642        H649   1.085       .  S
C643        C644   1.385       .  A
C643        H650   1.084       .  S
C644        C645   1.405       .  A
C644        H651   1.082       .  S
C645        C646   1.407       .  A
C646        H652   1.084       .  S
C653        C654   1.400       .  A
C653        C658   1.404       .  A
C654        C655   1.399       .  A
C654        H663   1.083       .  S
C655        C656   1.399       .  A
C655        H664   1.074       .  S
C656        C662   1.404       .  A
C656        C657   1.411       .  A
C657        C659   1.400       .  A
C657        C658   1.398       .  A
C658        H665   1.082       .  S
C659        C660   1.394       .  A
C659        H666   1.083       .  S
C660        C661   1.403       .  A
C660        H667   1.083       .  S
C661        C662   1.403       .  A
C662        H668   1.085       .  S
O669       Ni675   1.970   1_554  S
O669        C690   1.294       .  A
O670       Ni693   1.939       .  S
O670        C679   1.299       .  A
O671       Ni675   1.785   1_554  S
O671       Ni693   1.880   1_554  S
O671       Ni687   1.844       .  S
O671        H694   0.964       .  S
C672        O689   1.295       .  A
C672        O681   1.305       .  A
C672        C946   1.482       .  S
O673       Ni692   1.953   1_556  S
O673        C679   1.297       .  A
O674       Ni692   1.932       .  S
O674        C676   1.270       .  A
Ni675       O678   2.009       .  S
Ni675       O680   1.953       .  S
C676        O686   1.272       .  A
C676        C913   1.484       .  S
O677       Ni693   1.875       .  S
O677        C683   1.295       .  A
O678        C683   1.318       .  A
C679        C803   1.497       .  S
O680        C682   1.281       .  A
O681       Ni692   1.983       .  S
C682        O688   1.271       .  A
C682        C780   1.479       .  S
C683        C795   1.475       .  S
H684        O685   0.967       .  S
O685       Ni693   1.868       .  S
O685       Ni687   1.826   1_556  S
O685       Ni692   1.829   1_556  S
O686       Ni687   1.927       .  S
Ni687       O691   1.914       .  S
Ni687       O689   1.903       .  S
O688       Ni693   1.897       .  S
C690        O691   1.288       .  A
C690        C929   1.488       .  S
O695       Ni701   1.952       .  S
O695        C716   1.298       .  A
O696       Ni719   1.887       .  S
O696        C705   1.282       .  A
O697       Ni701   1.831       .  S
O697       Ni719   1.821       .  S
O697       Ni713   1.871       .  S
O697        H720   0.967       .  S
C698        O715   1.293       .  A
C698        O707   1.318       .  A
C698        C937   1.468       .  S
O699       Ni718   1.973       .  S
O699        C705   1.296       .  A
O700       Ni718   1.959       .  S
O700        C702   1.285       .  A
Ni701       O704   1.986       .  S
Ni701       O706   1.933       .  S
C702        O712   1.277       .  A
C702        C922   1.490       .  S
O703       Ni719   1.901       .  S
O703        C709   1.293       .  A
O704        C709   1.308       .  A
C705        C788   1.486       .  S
O706        C708   1.268       .  A
O707       Ni718   2.010       .  S
C708        O714   1.266       .  A
C708        C763   1.478       .  S
C709        C772   1.485       .  S
H710        O711   0.964       .  S
O711       Ni719   1.841       .  S
O711       Ni713   1.877       .  S
O711       Ni718   1.777       .  S
O712       Ni713   1.906       .  S
Ni713       O717   1.940       .  S
Ni713       O715   1.871       .  S
O714       Ni719   1.918       .  S
C716        O717   1.300       .  A
C716        C891   1.497       .  S
O721       Ni729   1.919       .  S
O721        C731   1.282       .  A
O722        C732   1.278       .  A
O723        C733   1.286       .  A
O724       Ni729   1.933       .  S
O724        C734   1.284       .  A
O725       Ni730   1.918       .  S
O725        C734   1.280       .  A
O726        C733   1.280       .  A
O727        C732   1.281       .  A
O728       Ni730   1.916       .  S
O728        C731   1.282       .  A
Ni729      Ni730   2.390       .  S
C731       C1321   1.478       .  S
C732       C1273   1.459       .  S
C733       C1313   1.483       .  S
C734       C1289   1.477       .  S
O735       Ni743   1.925       .  S
O735        C745   1.281       .  A
O736       Ni743   1.918       .  S
O736        C746   1.283       .  A
O737       Ni743   1.918       .  S
O737        C747   1.280       .  A
O738       Ni743   1.905       .  S
O738        C748   1.279       .  A
O739       Ni744   1.910       .  S
O739        C748   1.279       .  A
O740       Ni744   1.916       .  S
O740        C747   1.280       .  A
O741       Ni744   1.940       .  S
O741        C746   1.285       .  A
O742       Ni744   1.933       .  S
O742        C745   1.283       .  A
Ni743      Ni744   2.390       .  S
C745       C1249   1.479       .  S
C746       C1217   1.493       .  S
C747       C1265   1.464       .  S
C748       C1225   1.458       .  S
O749       Ni757   1.923   1_455  S
O749        C759   1.284       .  A
O750      Ni2093   1.916       .  S
O750        C760   1.281       .  A
O751      Ni2093   1.885       .  S
O751        C761   1.276       .  A
O752       Ni757   1.891   1_455  S
O752        C762   1.276       .  A
O753      Ni2094   1.925   1_455  S
O753        C762   1.285       .  A
O754       Ni758   1.939       .  S
O754        C761   1.285       .  A
O755       Ni758   1.908       .  S
O755        C760   1.278       .  A
O756      Ni2094   1.899   1_455  S
O756        C759   1.277       .  A
Ni757      O2086   1.916       .  S
Ni757      O2087   1.885       .  S
Ni757     Ni2094   2.389       .  S
Ni758      O2089   1.925       .  S
Ni758      O2092   1.899       .  S
Ni758     Ni2093   2.389       .  S
C759       C1161   1.465       .  S
C760       C1193   1.461       .  S
C761       C1153   1.477       .  S
C762       C1185   1.472       .  S
C763       C2100   1.423       .  A
C763        C768   1.409       .  A
C764        C825   1.484       .  S
C764       C2099   1.423   1_455  A
C764        C765   1.408       .  A
C765        C766   1.405       .  A
C765        H770   1.085       .  S
C766       C1257   1.493       .  S
C766       C2103   1.417   1_455  A
C767       C1305   1.487       .  S
C767       C2102   1.417       .  A
C767        C768   1.396       .  A
C768        H769   1.081       .  S
C771        C821   1.482       .  S
C771        C776   1.412       .  A
C772        C773   1.416       .  A
C773        C774   1.400       .  A
C773        H778   1.083       .  S
C774       C1241   1.500       .  S
C775       C1177   1.479       .  S
C775        C776   1.395       .  A
C776        H777   1.085       .  S
C779        C847   1.489       .  S
C779        C780   1.416       .  A
C779        C784   1.411       .  A
C780        C781   1.411       .  A
C781        C782   1.405       .  A
C781        H786   1.084       .  S
C782       C1145   1.476       .  S
C782        C783   1.421       .  A
C783       C1297   1.509       .  S
C783        C784   1.396       .  A
C784        H785   1.083       .  S
C787        C824   1.485       .  S
C787        C788   1.420       .  A
C787        C792   1.418       .  A
C788        C789   1.409       .  A
C789        C790   1.388       .  A
C789        H794   1.085       .  S
C790       C1201   1.486       .  S
C790        C791   1.412       .  A
C791       C1329   1.485       .  S
C791        C792   1.409       .  A
C792        H793   1.084       .  S
C795        C800   1.405       .  A
C796        C850   1.476       .  S
C796        C797   1.407       .  A
C797        C798   1.397       .  A
C797        H802   1.085       .  S
C798       C1169   1.473       .  S
C799       C1233   1.472       .  S
C799        C800   1.390       .  A
C800        H801   1.086       .  S
C803       C2140   1.427       .  A
C803        C808   1.411       .  A
C804        C851   1.494       .  S
C804       C2139   1.427   1_455  A
C804        C805   1.425       .  A
C805        C806   1.401       .  A
C805        H810   1.084       .  S
C806       C1209   1.504       .  S
C806       C2143   1.413   1_455  A
C807       C1281   1.476       .  S
C807       C2142   1.413       .  A
C807        C808   1.399       .  A
C808        H809   1.085       .  S
O811       Ni817   1.976       .  S
O811        C832   1.295       .  A
O812       Ni835   1.920       .  S
O812        C821   1.296       .  A
O813       Ni817   1.788       .  S
O813       Ni835   1.873       .  S
O813       Ni829   1.852       .  S
O813        H836   0.965       .  S
C814        O831   1.292       .  A
C814        O823   1.307       .  A
C814        C892   1.495       .  S
O815       Ni834   1.952       .  S
O815        C821   1.299       .  A
O816       Ni834   1.930       .  S
O816        C818   1.269       .  A
Ni817       O820   2.013       .  S
Ni817       O822   1.950       .  S
C818        O828   1.269       .  A
C818        C938   1.476       .  S
O819       Ni835   1.879       .  S
O819        C825   1.296       .  A
O820        C825   1.316       .  A
O822        C824   1.281       .  A
O823       Ni834   1.992       .  S
C824        O830   1.274       .  A
H826        O827   0.967       .  S
O827       Ni835   1.879       .  S
O827       Ni829   1.816       .  S
O827       Ni834   1.829       .  S
O828       Ni829   1.925       .  S
Ni829       O833   1.879       .  S
Ni829       O831   1.911       .  S
O830       Ni835   1.904       .  S
C832        O833   1.281       .  A
C832        C921   1.484       .  S
O837       Ni843   1.945   1_554  S
O837        C858   1.296       .  A
O838       Ni861   1.874       .  S
O838        C847   1.278       .  A
O839       Ni843   1.832       .  S
O839       Ni861   1.812       .  S
O839       Ni855   1.881   1_556  S
O839        H862   0.967   1_556  S
C840        O857   1.300       .  A
C840        O849   1.319       .  A
C840        C914   1.486       .  S
O841       Ni860   1.983   1_556  S
O841        C847   1.296       .  A
O842       Ni860   1.950       .  S
O842        C844   1.279       .  A
Ni843       O846   1.989       .  S
Ni843       O848   1.926       .  S
C844        O854   1.276       .  A
C844        C930   1.481       .  S
O845       Ni861   1.903       .  S
O845        C851   1.289       .  A
O846        C851   1.305       .  A
O848        C850   1.268       .  A
O849       Ni860   2.018       .  S
C850        O856   1.271       .  A
H852        O853   0.964   1_556  S
O853       Ni861   1.849   1_554  S
O853       Ni855   1.878       .  S
O853       Ni860   1.793       .  S
O854       Ni855   1.906       .  S
Ni855       O859   1.942       .  S
Ni855       O857   1.886       .  S
O856       Ni861   1.930       .  S
C858        O859   1.301       .  A
C858        C945   1.483       .  S
O863      Ni2207   1.920       .  S
O863        C873   1.280       .  A
O864       Ni871   1.930       .  S
O864        C874   1.284       .  A
O865       Ni871   1.920       .  S
O865        C875   1.282       .  A
O866      Ni2207   1.909       .  S
O866        C876   1.278       .  A
O867      Ni2208   1.918       .  S
O867        C876   1.282       .  A
O868       Ni872   1.911       .  S
O868        C875   1.279       .  A
O869       Ni872   1.906       .  S
O869        C874   1.278       .  A
O870      Ni2208   1.914       .  S
O870        C873   1.282       .  A
Ni871      O2199   1.920   1_455  S
Ni871      O2202   1.909   1_455  S
Ni871      Ni872   2.393       .  S
Ni872      O2203   1.918   1_455  S
Ni872      O2206   1.914   1_455  S
C873       C1097   1.469       .  S
C874       C1113   1.470       .  S
C875       C1137   1.465       .  S
C876       C1089   1.463       .  S
O877       Ni885   1.921       .  S
O877        C887   1.281       .  A
O878       Ni885   1.919       .  S
O878        C888   1.281       .  A
O879       Ni885   1.919       .  S
O879        C889   1.281       .  A
O880       Ni885   1.916       .  S
O880        C890   1.280       .  A
O881       Ni886   1.917       .  S
O881        C890   1.282       .  A
O882       Ni886   1.905       .  S
O882        C889   1.278       .  A
O883       Ni886   1.909       .  S
O883        C888   1.279       .  A
O884       Ni886   1.926       .  S
O884        C887   1.284       .  A
Ni885      Ni886   2.393       .  S
C887       C1049   1.477       .  S
C888       C1033   1.462       .  S
C889       C1025   1.458       .  S
C890       C1073   1.473       .  S
C891        C896   1.415       .  A
C892        C893   1.421       .  A
C893        C894   1.401       .  A
C893        H898   1.084       .  S
C894       C1057   1.488       .  S
C895       C1081   1.476       .  S
C895        C896   1.398       .  A
C896        H897   1.084       .  S
O899        C909   1.279       .  A
O900       Ni907   1.920       .  S
O900        C910   1.283       .  A
O901       Ni907   1.912       .  S
O901        C911   1.281       .  A
O902        C912   1.280       .  A
O903       Ni908   1.910   1_565  S
O903        C912   1.280       .  A
O904        C911   1.281       .  A
O905        C910   1.281       .  A
O906       Ni908   1.906   1_565  S
O906        C909   1.281       .  A
C909        C953   1.464       .  S
C910       C1001   1.483       .  S
C911        C985   1.477       .  S
C912        C977   1.461       .  S
C913        C918   1.411       .  A
C914        C915   1.412       .  A
C915        C916   1.398       .  A
C915        H920   1.085       .  S
C916       C1065   1.483       .  S
C917       C1105   1.477       .  S
C917        C918   1.396       .  A
C918        H919   1.084       .  S
C921        C922   1.421       .  A
C921        C926   1.410       .  A
C922        C923   1.417       .  A
C923        C924   1.411       .  A
C923        H928   1.084       .  S
C924        C993   1.478       .  S
C924        C925   1.413       .  A
C925       C1121   1.497       .  S
C925        C926   1.388       .  A
C926        H927   1.084       .  S
C929        C930   1.428       .  A
C929        C934   1.415       .  A
C930        C931   1.409       .  A
C931        C932   1.396       .  A
C931        H936   1.085       .  S
C932       C1129   1.482       .  S
C932        C933   1.410       .  A
C933       C1009   1.488       .  S
C933        C934   1.400       .  A
C934        H935   1.085       .  S
C937       C2274   1.424       .  A
C937        C942   1.402       .  A
C938       C2273   1.424   1_455  A
C938        C939   1.404       .  A
C939        C940   1.396       .  A
C939        H944   1.085       .  S
C940        C961   1.469       .  S
C940       C2277   1.411   1_455  A
C941       C1017   1.479       .  S
C941       C2276   1.411       .  A
C941        C942   1.390       .  A
C942        H943   1.087       .  S
C945       C2282   1.427   1_455  A
C945        C950   1.410       .  A
C946       C2281   1.427       .  A
C946        C947   1.412       .  A
C947        C948   1.389       .  A
C947        H952   1.084       .  S
C948       C1041   1.483       .  S
C948       C2285   1.405       .  A
C949        C969   1.470       .  S
C949       C2284   1.405   1_455  A
C949        C950   1.395       .  A
C950        H951   1.085       .  S
C953        C954   1.403       .  A
C953        C958   1.400       .  A
C954        C955   1.399       .  A
C954        H963   1.083       .  S
C955        C956   1.402       .  A
C955        H964   1.081       .  S
C956        C962   1.403       .  A
C956        C957   1.415       .  A
C957        C959   1.398       .  A
C957        C958   1.393       .  A
C958        H965   1.085       .  S
C959        C960   1.388       .  A
C959        H966   1.083       .  S
C960        C961   1.403       .  A
C960        H967   1.084       .  S
C961        C962   1.401       .  A
C962       H2304   1.083       .  S
H968       C2298   1.083       .  S
C969        C970   1.404       .  A
C969        C974   1.395       .  A
C970        C971   1.395       .  A
C970       H2315   1.083   1_455  S
C971        C972   1.401       .  A
C971       H2316   1.084       .  S
C972        C978   1.400       .  A
C972        C973   1.415       .  A
C973        C975   1.397       .  A
C973        C974   1.397       .  A
C974        H981   1.081       .  S
C975        C976   1.392       .  A
C975        H982   1.080       .  S
C976        C977   1.401       .  A
C976        H983   1.083       .  S
C977        C978   1.403       .  A
C978        H984   1.085       .  S
H979       C2306   1.083       .  S
H980       C2307   1.084       .  S
C985        C986   1.405       .  A
C985        C990   1.407       .  A
C986        C987   1.397       .  A
C986        H995   1.083       .  S
C987        C988   1.398       .  A
C987        H996   1.078       .  S
C988        C994   1.405       .  A
C988        C989   1.413       .  A
C989        C991   1.400       .  A
C989        C990   1.401       .  A
C990        H997   1.084       .  S
C991        C992   1.394       .  A
C991        H998   1.084       .  S
C992        C993   1.406       .  A
C992        H999   1.084       .  S
C993        C994   1.402       .  A
C994       H1000   1.084       .  S
C1001      C1002   1.405       .  A
C1001      C1006   1.410       .  A
C1002      C1003   1.398       .  A
C1002      H1011   1.083       .  S
C1003      C1004   1.399       .  A
C1003      H1012   1.080       .  S
C1004      C1010   1.407       .  A
C1004      C1005   1.413       .  A
C1005      C1007   1.402       .  A
C1005      C1006   1.404       .  A
C1006      H1013   1.084       .  S
C1007      C1008   1.397       .  A
C1007      H1014   1.084       .  S
C1008      C1009   1.407       .  A
C1008      H1015   1.083       .  S
C1009      C1010   1.404       .  A
C1010      H1016   1.084       .  S
C1017      C1018   1.404       .  A
C1017      C1022   1.404       .  A
C1018      C1019   1.393       .  A
C1018      H1027   1.083       .  S
C1019      C1020   1.400       .  A
C1019      H1028   1.084       .  S
C1020      C1026   1.395       .  A
C1020      C1021   1.415       .  A
C1021      C1023   1.404       .  A
C1021      C1022   1.400       .  A
C1022      H1029   1.084       .  S
C1023      C1024   1.399       .  A
C1023      H1030   1.084       .  S
C1024      C1025   1.401       .  A
C1024      H1031   1.083       .  S
C1025      C1026   1.397       .  A
C1026      H1032   1.083       .  S
C1033      C1034   1.400       .  A
C1033      C1038   1.402       .  A
C1034      C1035   1.397       .  A
C1034      H1043   1.083       .  S
C1035      C1036   1.403       .  A
C1035      H1044   1.083       .  S
C1036      C1042   1.398       .  A
C1036      C1037   1.413       .  A
C1037      C1039   1.404       .  A
C1037      C1038   1.400       .  A
C1038      H1045   1.083       .  S
C1039      C1040   1.398       .  A
C1039      H1046   1.084       .  S
C1040      C1041   1.403       .  A
C1040      H1047   1.083       .  S
C1041      C1042   1.402       .  A
C1042      H1048   1.078       .  S
C1049      C1050   1.404       .  A
C1049      C1054   1.406       .  A
C1050      C1051   1.396       .  A
C1050      H1059   1.084       .  S
C1051      C1052   1.400       .  A
C1051      H1060   1.084       .  S
C1052      C1058   1.407       .  A
C1052      C1053   1.415       .  A
C1053      C1055   1.402       .  A
C1053      C1054   1.412       .  A
C1054      H1061   1.084       .  S
C1055      C1056   1.400       .  A
C1055      H1062   1.081       .  S
C1056      C1057   1.405       .  A
C1056      H1063   1.083       .  S
C1057      C1058   1.405       .  A
C1058      H1064   1.084       .  S
C1065      C1066   1.404       .  A
C1065      C1070   1.403       .  A
C1066      C1067   1.398       .  A
C1066      H1075   1.083       .  S
C1067      C1068   1.399       .  A
C1067      H1076   1.079       .  S
C1068      C1074   1.408       .  A
C1068      C1069   1.416       .  A
C1069      C1071   1.399       .  A
C1069      C1070   1.405       .  A
C1070      H1077   1.084       .  S
C1071      C1072   1.395       .  A
C1071      H1078   1.084       .  S
C1072      C1073   1.406       .  A
C1072      H1079   1.084       .  S
C1073      C1074   1.403       .  A
C1074      H1080   1.084       .  S
C1081      C1082   1.403       .  A
C1081      C1086   1.398       .  A
C1082      C1083   1.399       .  A
C1082      H1091   1.081       .  S
C1083      C1084   1.402       .  A
C1083      H1092   1.083       .  S
C1084      C1090   1.406       .  A
C1084      C1085   1.416       .  A
C1085      C1087   1.398       .  A
C1085      C1086   1.398       .  A
C1087      C1088   1.391       .  A
C1087      H1094   1.083       .  S
C1088      C1089   1.402       .  A
C1088      H1095   1.083       .  S
C1089      C1090   1.403       .  A
C1090      H1096   1.084       .  S
C1097      C1098   1.403       .  A
C1097      C1102   1.407       .  A
C1098      C1099   1.388       .  A
C1098      H1107   1.084       .  S
C1099      C1100   1.396       .  A
C1099      H1108   1.084       .  S
C1100      C1106   1.396       .  A
C1100      C1101   1.415       .  A
C1101      C1103   1.406       .  A
C1101      C1102   1.411       .  A
C1102      H1109   1.084       .  S
C1104      H1111   1.083       .  S
C1105      C1106   1.398       .  A
C1106      H1112   1.085       .  S
C1113      C1114   1.403       .  A
C1113      C1118   1.404       .  A
C1114      C1115   1.399       .  A
C1114      H1123   1.083       .  S
C1115      C1116   1.404       .  A
C1115      H1124   1.081       .  S
C1116      C1122   1.404       .  A
C1116      C1117   1.412       .  A
C1117      C1119   1.403       .  A
C1117      C1118   1.404       .  A
C1118      H1125   1.085       .  S
C1119      C1120   1.399       .  A
C1119      H1126   1.083       .  S
C1120      C1121   1.406       .  A
C1120      H1127   1.083       .  S
C1121      C1122   1.408       .  A
C1122      H1128   1.082       .  S
C1129      C1130   1.399       .  A
C1129      C1134   1.409       .  A
C1130      C1131   1.394       .  A
C1130      H1139   1.083       .  S
C1131      C1132   1.402       .  A
C1131      H1140   1.078       .  S
C1132      C1138   1.399       .  A
C1132      C1133   1.412       .  A
C1133      C1135   1.405       .  A
C1133      C1134   1.402       .  A
C1134      H1141   1.084       .  S
C1135      C1136   1.400       .  A
C1135      H1142   1.083       .  S
C1136      C1137   1.402       .  A
C1136      H1143   1.083       .  S
C1137      C1138   1.402       .  A
C1138      H1144   1.084       .  S
C1145      C1146   1.404       .  A
C1145      C1150   1.396       .  A
C1146      C1147   1.403       .  A
C1146      H1155   1.083       .  S
C1147      C1148   1.404       .  A
C1147      H1156   1.075       .  S
C1148      C1154   1.413       .  A
C1148      C1149   1.415       .  A
C1149      C1151   1.390       .  A
C1149      C1150   1.392       .  A
C1150      H1157   1.085       .  S
C1151      C1152   1.382       .  A
C1151      H1158   1.084       .  S
C1152      C1153   1.409       .  A
C1152      H1159   1.083       .  S
C1153      C1154   1.408       .  A
C1154      H1160   1.083       .  S
C1161      C1162   1.403       .  A
C1161      C1166   1.401       .  A
C1162      C1163   1.396       .  A
C1162      H1171   1.083       .  S
C1163      C1164   1.401       .  A
C1163      H1172   1.079       .  S
C1164      C1170   1.403       .  A
C1164      C1165   1.414       .  A
C1165      C1167   1.399       .  A
C1165      C1166   1.398       .  A
C1166      H1173   1.083       .  S
C1167      C1168   1.392       .  A
C1167      H1174   1.083       .  S
C1168      C1169   1.402       .  A
C1168      H1175   1.084       .  S
C1169      C1170   1.401       .  A
C1170      H1176   1.083       .  S
C1177      C1178   1.402       .  A
C1177      C1182   1.402       .  A
C1178      C1179   1.398       .  A
C1178      H1187   1.081       .  S
C1179      C1180   1.397       .  A
C1179      H1188   1.076       .  S
C1180      C1186   1.401       .  A
C1180      C1181   1.412       .  A
C1181      C1183   1.397       .  A
C1181      C1182   1.395       .  A
C1182      H1189   1.084       .  S
C1183      C1184   1.391       .  A
C1183      H1190   1.084   1_565  S
C1184      C1185   1.408       .  A
C1184      H1191   1.083       .  S
C1185      C1186   1.402       .  A
C1186      H1192   1.084       .  S
C1193      C1194   1.398       .  A
C1193      C1198   1.404       .  A
C1194      C1195   1.399       .  A
C1194      H1203   1.083       .  S
C1195      C1196   1.405       .  A
C1195      H1204   1.082       .  S
C1196      C1202   1.400       .  A
C1196      C1197   1.411       .  A
C1197      C1199   1.403       .  A
C1197      C1198   1.397       .  A
C1198      H1205   1.085       .  S
C1199      C1200   1.397       .  A
C1199      H1206   1.084       .  S
C1200      C1201   1.402       .  A
C1200      H1207   1.083       .  S
C1201      C1202   1.405       .  A
C1202      H1208   1.083       .  S
C1209      C1210   1.406       .  A
C1209      C1214   1.408       .  A
C1210      C1211   1.408       .  A
C1210      H2555   1.082       .  S
C1211      C1212   1.408       .  A
C1211      H1220   1.081       .  S
C1212      C1218   1.418       .  A
C1212      C1213   1.413       .  A
C1213      C1215   1.399       .  A
C1213      C1214   1.405       .  A
C1214      H1221   1.084       .  S
C1215      C1216   1.394       .  A
C1215      H1222   1.084       .  S
C1216      C1217   1.408       .  A
C1216      H1223   1.083       .  S
C1217      C1218   1.414       .  A
C1218      H1224   1.084       .  S
H1219      C2546   1.082       .  S
C1225      C1226   1.399       .  A
C1225      C1230   1.402       .  A
C1226      C1227   1.395       .  A
C1226      H1235   1.083       .  S
C1227      C1228   1.403       .  A
C1227      H1236   1.078       .  S
C1228      C1234   1.401       .  A
C1228      C1229   1.413       .  A
C1229      C1231   1.401       .  A
C1229      C1230   1.395       .  A
C1230      H1237   1.085       .  S
C1231      C1232   1.393       .  A
C1231      H1238   1.084       .  S
C1232      C1233   1.401       .  A
C1233      C1234   1.402       .  A
C1234      H1240   1.084       .  S
C1241      C1242   1.406       .  A
C1241      C1246   1.413       .  A
C1242      C1243   1.398       .  A
C1242      H1251   1.083       .  S
C1243      C1244   1.402       .  A
C1243      H1252   1.082       .  S
C1244      C1250   1.404       .  A
C1244      C1245   1.411       .  A
C1245      C1247   1.406       .  A
C1245      C1246   1.408       .  A
C1246      H1253   1.084       .  S
C1247      C1248   1.403       .  A
C1247      H1254   1.084       .  S
C1248      C1249   1.403       .  A
C1248      H1255   1.083       .  S
C1249      C1250   1.402       .  A
C1250      H1256   1.076       .  S
C1257      C1258   1.405       .  A
C1257      C1262   1.412       .  A
C1258      C1259   1.392       .  A
C1258      H1267   1.083       .  S
C1259      C1260   1.400       .  A
C1259      H1268   1.084       .  S
C1260      C1266   1.395       .  A
C1260      C1261   1.412       .  A
C1261      C1263   1.408       .  A
C1261      C1262   1.406       .  A
C1262      H1269   1.084       .  S
C1263      C1264   1.404       .  A
C1263      H1270   1.084       .  S
C1264      C1265   1.402       .  A
C1264      H1271   1.083       .  S
C1265      C1266   1.396       .  A
C1266      H1272   1.078       .  S
C1273      C1274   1.401       .  A
C1273      C1278   1.397       .  A
C1274      C1275   1.400       .  A
C1274      H1283   1.083       .  S
C1275      C1276   1.404       .  A
C1275      H1284   1.083       .  S
C1276      C1282   1.402       .  A
C1276      C1277   1.414       .  A
C1277      C1279   1.398       .  A
C1277      C1278   1.396       .  A
C1278      H1285   1.081       .  S
C1279      C1280   1.390       .  A
C1279      H1286   1.078       .  S
C1280      C1281   1.401       .  A
C1280      H1287   1.083       .  S
C1281      C1282   1.406       .  A
C1282      H1288   1.084       .  S
C1289      C1290   1.404       .  A
C1289      C1294   1.400       .  A
C1290      C1291   1.406       .  A
C1290      H1299   1.083       .  S
C1291      C1292   1.407       .  A
C1291      H1300   1.084       .  S
C1292      C1298   1.411       .  A
C1292      C1293   1.412       .  A
C1293      C1295   1.398       .  A
C1293      C1294   1.402       .  A
C1294      H1301   1.081       .  S
C1295      C1296   1.394       .  A
C1295      H1302   1.081       .  S
C1296      C1297   1.409       .  A
C1296      H1303   1.082       .  S
C1297      C1298   1.415       .  A
C1298      H1304   1.082       .  S
C1305      C1306   1.404       .  A
C1305      C1310   1.401       .  A
C1306      C1307   1.405       .  A
C1306      H1315   1.081       .  S
C1307      C1308   1.407       .  A
C1307      H1316   1.083       .  S
C1308      C1314   1.413       .  A
C1308      C1309   1.415       .  A
C1309      C1311   1.395       .  A
C1309      C1310   1.398       .  A
C1310      H1317   1.085       .  S
C1311      C1312   1.389       .  A
C1311      H1318   1.084       .  S
C1312      C1313   1.407       .  A
C1312      H1319   1.083       .  S
C1313      C1314   1.409       .  A
C1314      H1320   1.083       .  S
C1321      C1322   1.403       .  A
C1321      C1326   1.408       .  A
C1322      C1323   1.400       .  A
C1322      H1331   1.083       .  S
C1323      C1324   1.399       .  A
C1323      H1332   1.075       .  S
C1324      C1330   1.408       .  A
C1324      C1325   1.411       .  A
C1325      C1327   1.401       .  A
C1325      C1326   1.404       .  A
C1326      H1333   1.083       .  S
C1327      C1328   1.398       .  A
C1327      H1334   1.084       .  S
C1328      C1329   1.406       .  A
C1328      H1335   1.083       .  S
C1329      C1330   1.404       .  A
C1330      H1336   1.084       .  S
O1337     Ni1343   1.969   1_554  S
O1337      C1358   1.294       .  A
O1338     Ni1361   1.937       .  S
O1338      C1347   1.297       .  A
O1339     Ni1343   1.784       .  S
O1339     Ni1361   1.878       .  S
O1339     Ni1355   1.841   1_556  S
O1339      H1362   0.965   1_556  S
C1340      O1357   1.295       .  A
C1340      O1349   1.306       .  A
C1340      C1614   1.484       .  S
O1341     Ni1360   1.961   1_556  S
O1341      C1347   1.299       .  A
O1342     Ni1360   1.938       .  S
O1342      C1344   1.272       .  A
Ni1343     O1346   2.011       .  S
Ni1343     O1348   1.956       .  S
C1344      O1354   1.272       .  A
C1344      C1581   1.487       .  S
O1345     Ni1361   1.870       .  S
O1345      C1351   1.293       .  A
O1346      C1351   1.318       .  A
C1347      C1471   1.501       .  S
O1348      C1350   1.281       .  A
O1349     Ni1360   1.983       .  S
C1350      O1356   1.269       .  A
C1350      C1448   1.478       .  S
C1351      C1463   1.469       .  S
H1352      O1353   0.966       .  S
O1353     Ni1361   1.868       .  S
O1353     Ni1355   1.825   1_556  S
O1353     Ni1360   1.827   1_556  S
O1354     Ni1355   1.932       .  S
Ni1355     O1359   1.908       .  S
Ni1355     O1357   1.902       .  S
O1356     Ni1361   1.896       .  S
C1358      O1359   1.288       .  A
C1358      C1597   1.483       .  S
O1363     Ni1369   1.952       .  S
O1363      C1384   1.298       .  A
O1364     Ni1387   1.883       .  S
O1364      C1373   1.280       .  A
O1365     Ni1369   1.829       .  S
O1365     Ni1387   1.820       .  S
O1365     Ni1381   1.874       .  S
O1365      H1388   0.967       .  S
C1366      O1383   1.294       .  A
C1366      O1375   1.315       .  A
C1366      C1605   1.472       .  S
O1367     Ni1386   1.963       .  S
O1367      C1373   1.294       .  A
O1368     Ni1386   1.953       .  S
O1368      C1370   1.283       .  A
Ni1369     O1372   1.986       .  S
Ni1369     O1374   1.932       .  S
C1370      O1380   1.275       .  A
C1370      C1590   1.487       .  S
O1371     Ni1387   1.908       .  S
O1371      C1377   1.294       .  A
O1372      C1377   1.306       .  A
C1373      C1456   1.475       .  S
O1374      C1376   1.269       .  A
O1375     Ni1386   2.002       .  S
C1376      O1382   1.263       .  A
C1376      C1431   1.473       .  S
C1377      C1440   1.486       .  S
H1378      O1379   0.965       .  S
O1379     Ni1387   1.849       .  S
O1379     Ni1381   1.873       .  S
O1379     Ni1386   1.782       .  S
O1380     Ni1381   1.904       .  S
Ni1381     O1385   1.926       .  S
Ni1381     O1383   1.874       .  S
O1382     Ni1387   1.908       .  S
C1384      O1385   1.297       .  A
C1384      C1559   1.484       .  S
O1389     Ni1397   1.913       .  S
O1389      C1399   1.280       .  A
O1390     Ni2065   1.912   1_545  S
O1390      C1400   1.279       .  A
O1391     Ni2065   1.924   1_545  S
O1391      C1401   1.282       .  A
O1392     Ni1397   1.942       .  S
O1392      C1402   1.287       .  A
O1393     Ni1398   1.909       .  S
O1393      C1402   1.277       .  A
O1394     Ni2066   1.901   1_545  S
O1394      C1401   1.280       .  A
O1395     Ni2066   1.919   1_545  S
O1395      C1400   1.281       .  A
O1396     Ni1398   1.911       .  S
O1396      C1399   1.281       .  A
Ni1397     O2058   1.910       .  S
Ni1397     O2059   1.940       .  S
Ni1397    Ni1398   2.389       .  S
Ni1398     O2062   1.903       .  S
Ni1398     O2063   1.918       .  S
C1399      C1989   1.468       .  S
C1400      C1941   1.461       .  S
C1401      C1981   1.470       .  S
C1402      C1957   1.478       .  S
O1403     Ni1411   1.905       .  S
O1403      C1413   1.277       .  A
O1404     Ni1411   1.913       .  S
O1404      C1414   1.282       .  A
O1405     Ni1411   1.921       .  S
O1405      C1415   1.282       .  A
O1406     Ni1411   1.911       .  S
O1406      C1416   1.280       .  A
O1407     Ni1412   1.902       .  S
O1407      C1416   1.277       .  A
O1408     Ni1412   1.907       .  S
O1408      C1415   1.277       .  A
O1409     Ni1412   1.939       .  S
O1409      C1414   1.285       .  A
O1410     Ni1412   1.937       .  S
O1410      C1413   1.285       .  A
Ni1411    Ni1412   2.392       .  S
C1413      C1917   1.471       .  S
C1414      C1885   1.492       .  S
C1415      C1933   1.460       .  S
C1416      C1893   1.451       .  S
O1417     Ni1425   1.923       .  S
O1417      C1427   1.283       .  A
O1418      C1428   1.281       .  A
O1419      C1429   1.275       .  A
O1420     Ni1425   1.877       .  S
O1420      C1430   1.273       .  A
O1421      C1430   1.286       .  A
O1422     Ni1426   1.937       .  S
O1422      C1429   1.285       .  A
O1423     Ni1426   1.903       .  S
O1423      C1428   1.277       .  A
O1424      C1427   1.274       .  A
C1427      C1829   1.452       .  S
C1428      C1861   1.457       .  S
C1429      C1821   1.474       .  S
C1430      C1853   1.462       .  S
C1431      C1436   1.405       .  A
C1432      C1493   1.469       .  S
C1432      C1433   1.404       .  A
C1433      C1434   1.397       .  A
C1433      H1438   1.086       .  S
C1434      C1925   1.486       .  S
C1435      C1973   1.478       .  S
C1435      C1436   1.394       .  A
C1436      H1437   1.081       .  S
C1439      C1489   1.483       .  S
C1439      C2108   1.420       .  A
C1439      C1444   1.407       .  A
C1440      C2107   1.419   1_545  A
C1440      C1441   1.412       .  A
C1441      C1442   1.400       .  A
C1441      H1446   1.081       .  S
C1442      C1909   1.494       .  S
C1442      C2111   1.413   1_545  A
C1443      C1845   1.472       .  S
C1443      C2110   1.414       .  A
C1443      C1444   1.392       .  A
C1444      H1445   1.085       .  S
C1447      C1515   1.486       .  S
C1447      C1448   1.414       .  A
C1447      C1452   1.410       .  A
C1448      C1449   1.410       .  A
C1449      C1450   1.404       .  A
C1449      H1454   1.084       .  S
C1450      C1813   1.475       .  S
C1450      C1451   1.422       .  A
C1451      C1965   1.513       .  S
C1451      C1452   1.399       .  A
C1452      H1453   1.082       .  S
C1455      C1492   1.474       .  S
C1455      C1456   1.415       .  A
C1455      C1460   1.410       .  A
C1456      C1457   1.407       .  A
C1457      C1458   1.388       .  A
C1457      H1462   1.085       .  S
C1458      C1869   1.483       .  S
C1458      C1459   1.412       .  A
C1459      C1997   1.474       .  S
C1459      C1460   1.401       .  A
C1460      H1461   1.084       .  S
C1463      C2132   1.423   1_545  A
C1463      C1468   1.401       .  A
C1464      C1518   1.474       .  S
C1464      C2131   1.426       .  A
C1464      C1465   1.405       .  A
C1465      C1466   1.391       .  A
C1465      H1470   1.086       .  S
C1466      C1837   1.470       .  S
C1466      C2135   1.408       .  A
C1467      C1901   1.478       .  S
C1467      C2134   1.411   1_545  A
C1467      C1468   1.390       .  A
C1468      H1469   1.087       .  S
C1471      C1476   1.412       .  A
C1472      C1519   1.489       .  S
C1472      C1473   1.424       .  A
C1473      C1474   1.399       .  A
C1473      H1478   1.084       .  S
C1474      C1877   1.503       .  S
C1475      C1949   1.479       .  S
C1475      C1476   1.404       .  A
C1476      H1477   1.084       .  S
O1479     Ni1485   1.963       .  S
O1479      C1500   1.292       .  A
O1480     Ni1503   1.924       .  S
O1480      C1489   1.297       .  A
O1481     Ni1485   1.790       .  S
O1481     Ni1503   1.872       .  S
O1481     Ni1497   1.850       .  S
O1481      H1504   0.965       .  S
C1482      O1499   1.294       .  A
C1482      O1491   1.307       .  A
C1482      C1560   1.494       .  S
O1483     Ni1502   1.943       .  S
O1483      C1489   1.296       .  A
O1484     Ni1502   1.922       .  S
O1484      C1486   1.267       .  A
Ni1485     O1488   2.000       .  S
Ni1485     O1490   1.944       .  S
C1486      O1496   1.269       .  A
C1486      C1606   1.473       .  S
O1487     Ni1503   1.869       .  S
O1487      C1493   1.294       .  A
O1488      C1493   1.313       .  A
O1490      C1492   1.280       .  A
O1491     Ni1502   1.987       .  S
C1492      O1498   1.272       .  A
H1494      O1495   0.967       .  S
O1495     Ni1503   1.870       .  S
O1495     Ni1497   1.814       .  S
O1495     Ni1502   1.826       .  S
O1496     Ni1497   1.923       .  S
Ni1497     O1501   1.879       .  S
Ni1497     O1499   1.909       .  S
O1498     Ni1503   1.895       .  S
C1500      O1501   1.281       .  A
C1500      C1589   1.474       .  S
O1505     Ni1511   1.942   1_554  S
O1505      C1526   1.295       .  A
O1506     Ni1529   1.876       .  S
O1506      C1515   1.279       .  A
O1507     Ni1511   1.826       .  S
O1507     Ni1529   1.812       .  S
O1507     Ni1523   1.866   1_556  S
O1507      H1530   0.967   1_556  S
C1508      O1525   1.295       .  A
C1508      O1517   1.321       .  A
C1508      C1582   1.480       .  S
O1509     Ni1528   1.982   1_556  S
O1509      C1515   1.298       .  A
O1510     Ni1528   1.955       .  S
O1510      C1512   1.280       .  A
Ni1511     O1514   1.991       .  S
Ni1511     O1516   1.920       .  S
C1512      O1522   1.272       .  A
C1512      C1598   1.478       .  S
O1513     Ni1529   1.896       .  S
O1513      C1519   1.289       .  A
O1514      C1519   1.307       .  A
O1516      C1518   1.267       .  A
O1517     Ni1528   2.022       .  S
C1518      O1524   1.271       .  A
H1520      O1521   0.965       .  S
O1521     Ni1529   1.843       .  S
O1521     Ni1523   1.871   1_556  S
O1521     Ni1528   1.786   1_556  S
O1522     Ni1523   1.899       .  S
Ni1523     O1527   1.933       .  S
Ni1523     O1525   1.874       .  S
O1524     Ni1529   1.924       .  S
C1526      O1527   1.299       .  A
C1526      C1613   1.482       .  S
O1531      C1541   1.281       .  A
O1532     Ni1539   1.924       .  S
O1532      C1542   1.283       .  A
O1533     Ni1539   1.917       .  S
O1533      C1543   1.281       .  A
O1534      C1544   1.281       .  A
O1535      C1544   1.282       .  A
O1536     Ni1540   1.908       .  S
O1536      C1543   1.278       .  A
O1537     Ni1540   1.908       .  S
O1537      C1542   1.278       .  A
O1538      C1541   1.283       .  A
Ni1539    Ni1540   2.392       .  S
C1541      C1765   1.479       .  S
C1542      C1781   1.465       .  S
C1543      C1805   1.461       .  S
C1544      C1757   1.474       .  S
O1545     Ni1553   1.923       .  S
O1545      C1555   1.282       .  A
O1546     Ni1553   1.919       .  S
O1546      C1556   1.280       .  A
O1547     Ni1553   1.918       .  S
O1547      C1557   1.281       .  A
O1548     Ni1553   1.922       .  S
O1548      C1558   1.282       .  A
O1549     Ni1554   1.907       .  S
O1549      C1558   1.280       .  A
O1550     Ni1554   1.899       .  S
O1550      C1557   1.276       .  A
O1551     Ni1554   1.909       .  S
O1551      C1556   1.279       .  A
O1552     Ni1554   1.918       .  S
O1552      C1555   1.283       .  A
Ni1553    Ni1554   2.391       .  S
C1555      C1717   1.487       .  S
C1556      C1701   1.459       .  S
C1557      C1693   1.453       .  S
C1558      C1741   1.478       .  S
C1559      C2228   1.426   1_545  A
C1559      C1564   1.414       .  A
C1560      C2227   1.428       .  A
C1560      C1561   1.421       .  A
C1561      C1562   1.397       .  A
C1561      H1566   1.084       .  S
C1562      C1725   1.493       .  S
C1562      C2231   1.408       .  A
C1563      C1749   1.478       .  S
C1563      C2230   1.406   1_545  A
C1563      C1564   1.393       .  A
C1564      H1565   1.085       .  S
O1567     Ni2243   1.918       .  S
O1567      C1577   1.280       .  A
O1568     Ni1575   1.914       .  S
O1568      C1578   1.281       .  A
O1569     Ni1575   1.914       .  S
O1569      C1579   1.281       .  A
O1570     Ni2243   1.906       .  S
O1570      C1580   1.278       .  A
O1571     Ni1576   1.902       .  S
O1571      C1580   1.278       .  A
O1572     Ni2244   1.913       .  S
O1572      C1579   1.282       .  A
O1573     Ni2244   1.909       .  S
O1573      C1578   1.281       .  A
O1574     Ni1576   1.905       .  S
O1574      C1577   1.278       .  A
Ni1575     O2235   1.910   1_545  S
Ni1575     O2238   1.906   1_545  S
Ni1575    Ni2244   2.392       .  S
Ni1576     O2240   1.911       .  S
Ni1576     O2241   1.911       .  S
Ni1576    Ni2243   2.393       .  S
C1577      C1621   1.455       .  S
C1578      C1669   1.476       .  S
C1579      C1653   1.474       .  S
C1580      C1645   1.446       .  S
C1581      C2250   1.432   1_545  A
C1581      C1586   1.414       .  A
C1582      C2249   1.430       .  A
C1582      C1583   1.407       .  A
C1583      C1584   1.392       .  A
C1583      H1588   1.086       .  S
C1584      C1733   1.477       .  S
C1584      C2253   1.408       .  A
C1585      C1773   1.485       .  S
C1585      C2252   1.409   1_545  A
C1585      C1586   1.399       .  A
C1586      H1587   1.083       .  S
C1589      C1590   1.420       .  A
C1589      C1594   1.405       .  A
C1590      C1591   1.417       .  A
C1591      C1592   1.409       .  A
C1591      H1596   1.084       .  S
C1592      C1661   1.475       .  S
C1592      C1593   1.410       .  A
C1593      C1789   1.485       .  S
C1593      C1594   1.381       .  A
C1594      H1595   1.085       .  S
C1597      C1598   1.425       .  A
C1597      C1602   1.413       .  A
C1598      C1599   1.409       .  A
C1599      C1600   1.394       .  A
C1599      H1604   1.085       .  S
C1600      C1797   1.477       .  S
C1600      C1601   1.409       .  A
C1601      C1677   1.482       .  S
C1601      C1602   1.396       .  A
C1602      H1603   1.085       .  S
C1605      C1610   1.404       .  A
C1606      C1607   1.405       .  A
C1607      C1608   1.397       .  A
C1607      H1612   1.086       .  S
C1608      C1629   1.475       .  S
C1609      C1685   1.477       .  S
C1609      C1610   1.394       .  A
C1610      H1611   1.086       .  S
C1613      C1618   1.410       .  A
C1614      C1615   1.412       .  A
C1615      C1616   1.390       .  A
C1615      H1620   1.084       .  S
C1616      C1709   1.477       .  S
C1617      C1637   1.472       .  S
C1617      C1618   1.393       .  A
C1618      H1619   1.085       .  S
C1621      C1622   1.399       .  A
C1621      C1626   1.398       .  A
C1622      C1623   1.399       .  A
C1622      H1631   1.083       .  S
C1623      C1624   1.405       .  A
C1623      H1632   1.080       .  S
C1624      C1630   1.401       .  A
C1624      C1625   1.414       .  A
C1625      C1627   1.400       .  A
C1625      C1626   1.394       .  A
C1626      H1633   1.084       .  S
C1627      C1628   1.392       .  A
C1627      H1634   1.083       .  S
C1628      C1629   1.402       .  A
C1628      H1635   1.083       .  S
C1629      C1630   1.403       .  A
C1637      C1638   1.402       .  A
C1637      C1642   1.396       .  A
C1638      C1639   1.396       .  A
C1639      C1640   1.402       .  A
C1640      C1646   1.395       .  A
C1640      C1641   1.413       .  A
C1641      C1643   1.402       .  A
C1641      C1642   1.392       .  A
C1642      H1649   1.076       .  S
C1643      C1644   1.392       .  A
C1643      H1650   1.078       .  S
C1644      C1645   1.396       .  A
C1644      H1651   1.083       .  S
C1645      C1646   1.400       .  A
C1646      H1652   1.085       .  S
C1653      C1654   1.403       .  A
C1653      C1658   1.406       .  A
C1654      C1655   1.399       .  A
C1654      H1663   1.082       .  S
C1655      C1656   1.399       .  A
C1655      H1664   1.078       .  S
C1656      C1662   1.405       .  A
C1656      C1657   1.413       .  A
C1657      C1659   1.400       .  A
C1657      C1658   1.401       .  A
C1658      H1665   1.084       .  S
C1659      C1660   1.394       .  A
C1659      H1666   1.083       .  S
C1660      C1661   1.405       .  A
C1660      H1667   1.084       .  S
C1661      C1662   1.402       .  A
C1662      H1668   1.085       .  S
C1669      C1670   1.404       .  A
C1669      C1674   1.407       .  A
C1670      C1671   1.398       .  A
C1670      H1679   1.082       .  S
C1671      C1672   1.399       .  A
C1671      H1680   1.078       .  S
C1672      C1678   1.405       .  A
C1672      C1673   1.412       .  A
C1673      C1675   1.400       .  A
C1673      C1674   1.401       .  A
C1674      H1681   1.084       .  S
C1675      C1676   1.395       .  A
C1675      H1682   1.082       .  S
C1676      C1677   1.405       .  A
C1676      H1683   1.083       .  S
C1677      C1678   1.404       .  A
C1678      H1684   1.085       .  S
C1685      C1686   1.403       .  A
C1685      C1690   1.402       .  A
C1686      C1687   1.394       .  A
C1686      H1695   1.083       .  S
C1687      C1688   1.401       .  A
C1687      H1696   1.084       .  S
C1688      C1694   1.395       .  A
C1688      C1689   1.414       .  A
C1689      C1691   1.404       .  A
C1689      C1690   1.399       .  A
C1690      H1697   1.083       .  S
C1691      C1692   1.398       .  A
C1691      H1698   1.083       .  S
C1692      C1693   1.400       .  A
C1692      H1699   1.083       .  S
C1693      C1694   1.399       .  A
C1694      H1700   1.085       .  S
C1701      C1702   1.400       .  A
C1701      C1706   1.400       .  A
C1702      C1703   1.398       .  A
C1702      H1711   1.083       .  S
C1703      C1704   1.403       .  A
C1703      H1712   1.081       .  S
C1704      C1710   1.401       .  A
C1704      C1705   1.415       .  A
C1705      C1707   1.401       .  A
C1705      C1706   1.398       .  A
C1706      H1713   1.085       .  S
C1707      C1708   1.395       .  A
C1707      H1714   1.084       .  S
C1708      C1709   1.402       .  A
C1708      H1715   1.083       .  S
C1709      C1710   1.402       .  A
C1710      H1716   1.084       .  S
C1717      C1718   1.407       .  A
C1717      C1722   1.411       .  A
C1718      C1719   1.395       .  A
C1718      H1727   1.083       .  S
C1719      C1720   1.399       .  A
C1719      H1728   1.083       .  S
C1720      C1726   1.404       .  A
C1720      C1721   1.412       .  A
C1721      C1723   1.404       .  A
C1721      C1722   1.411       .  A
C1722      H1729   1.084       .  S
C1723      C1724   1.404       .  A
C1723      H1730   1.080       .  S
C1724      C1725   1.400       .  A
C1724      H1731   1.078       .  S
C1725      C1726   1.405       .  A
C1726      H1732   1.084       .  S
C1733      C1734   1.401       .  A
C1733      C1738   1.400       .  A
C1734      C1735   1.400       .  A
C1734      H1743   1.081       .  S
C1735      C1736   1.403       .  A
C1735      H1744   1.081       .  S
C1736      C1742   1.407       .  A
C1736      C1737   1.414       .  A
C1737      C1739   1.397       .  A
C1737      C1738   1.399       .  A
C1738      H1745   1.085       .  S
C1739      C1740   1.392       .  A
C1739      H1746   1.084       .  S
C1740      C1741   1.407       .  A
C1740      H1747   1.083       .  S
C1741      C1742   1.407       .  A
C1742      H1748   1.084       .  S
C1749      C1750   1.401       .  A
C1749      C1754   1.403       .  A
C1750      C1751   1.397       .  A
C1750      H1759   1.082       .  S
C1751      C1752   1.401       .  A
C1751      H1760   1.080       .  S
C1752      C1758   1.402       .  A
C1752      C1753   1.413       .  A
C1753      C1755   1.401       .  A
C1753      C1754   1.400       .  A
C1754      H2429   1.085       .  S
C1755      C1756   1.395       .  A
C1755      H1762   1.084       .  S
C1756      C1757   1.406       .  A
C1756      H1763   1.083       .  S
C1757      C1758   1.405       .  A
C1758      H1764   1.084       .  S
H1761      C2422   1.085       .  S
C1765      C1766   1.405       .  A
C1765      C1770   1.410       .  A
C1766      C1767   1.391       .  A
C1766      H1775   1.083       .  S
C1767      C1768   1.397       .  A
C1767      H1776   1.083       .  S
C1768      C1774   1.398       .  A
C1768      C1769   1.413       .  A
C1769      C1771   1.407       .  A
C1769      C1770   1.412       .  A
C1770      H1777   1.084       .  S
C1771      C2440   1.406       .  A
C1771      H2446   1.083       .  S
C1772      C2439   1.403       .  A
C1772      C2441   1.404       .  A
C1772      H1779   1.083       .  S
C1773      C2440   1.405       .  A
C1773      C1774   1.401       .  A
C1774      H1780   1.085       .  S
H1778      C2439   1.082       .  S
C1781      C1782   1.401       .  A
C1781      C1786   1.404       .  A
C1782      C1783   1.400       .  A
C1782      H1791   1.082       .  S
C1783      C1784   1.405       .  A
C1783      H1792   1.082       .  S
C1784      C1790   1.401       .  A
C1784      C1785   1.412       .  A
C1785      C1787   1.404       .  A
C1785      C1786   1.399       .  A
C1786      H1793   1.085       .  S
C1787      C1788   1.397       .  A
C1787      H1794   1.084       .  S
C1788      C1789   1.403       .  A
C1788      H1795   1.083       .  S
C1789      C1790   1.406       .  A
C1790      H1796   1.084       .  S
C1797      C1798   1.400       .  A
C1797      C1802   1.407       .  A
C1798      C1799   1.395       .  A
C1798      H1807   1.083       .  S
C1799      C1800   1.403       .  A
C1799      H1808   1.084       .  S
C1800      C1806   1.396       .  A
C1800      C1801   1.412       .  A
C1801      C1803   1.406       .  A
C1801      C1802   1.400       .  A
C1802      H1809   1.085       .  S
C1803      C1804   1.400       .  A
C1803      H1810   1.083       .  S
C1804      C1805   1.399       .  A
C1804      H1811   1.081       .  S
C1805      C1806   1.401       .  A
C1806      H1812   1.085       .  S
C1813      C1814   1.405       .  A
C1813      C1818   1.394       .  A
C1814      C1815   1.403       .  A
C1814      H1823   1.082       .  S
C1815      C1816   1.405       .  A
C1815      H1824   1.082       .  S
C1816      C1822   1.410       .  A
C1816      C1817   1.416       .  A
C1817      C1819   1.390       .  A
C1817      C1818   1.390       .  A
C1818      H1825   1.086       .  S
C1819      C1820   1.380       .  A
C1819      H1826   1.084       .  S
C1820      C1821   1.410       .  A
C1820      H1827   1.083       .  S
C1821      C1822   1.407       .  A
C1822      H1828   1.084       .  S
C1829      C1830   1.399       .  A
C1829      C1834   1.397       .  A
C1830      C1831   1.400       .  A
C1830      H1839   1.083       .  S
C1831      C1832   1.406       .  A
C1831      H1840   1.083       .  S
C1832      C1838   1.399       .  A
C1832      C1833   1.413       .  A
C1833      C1835   1.400       .  A
C1833      C1834   1.390       .  A
C1834      H1841   1.083       .  S
C1835      C1836   1.391       .  A
C1835      H1842   1.084       .  S
C1836      C1837   1.402       .  A
C1836      H1843   1.084       .  S
C1837      C1838   1.402       .  A
C1838      H1844   1.083       .  S
C1845      C1846   1.400       .  A
C1845      C1850   1.400       .  A
C1846      C1847   1.395       .  A
C1846      H1855   1.080       .  S
C1847      C1848   1.395       .  A
C1847      H1856   1.075       .  S
C1848      C1854   1.398       .  A
C1848      C1849   1.413       .  A
C1849      C1851   1.395       .  A
C1849      C1850   1.392       .  A
C1850      H1857   1.085       .  S
C1851      C1852   1.388       .  A
C1851      H1858   1.084       .  S
C1852      C1853   1.408       .  A
C1852      H1859   1.083       .  S
C1853      C1854   1.396       .  A
C1854      H1860   1.084       .  S
C1861      C1862   1.396       .  A
C1861      C1866   1.402       .  A
C1862      C1863   1.399       .  A
C1862      H1871   1.082       .  S
C1863      C1864   1.406       .  A
C1863      H1872   1.082       .  S
C1864      C1870   1.398       .  A
C1864      C1865   1.410       .  A
C1865      C1867   1.404       .  A
C1865      C1866   1.394       .  A
C1866      H1873   1.083       .  S
C1867      C1868   1.397       .  A
C1867      H1874   1.084       .  S
C1868      C1869   1.402       .  A
C1868      H1875   1.083       .  S
C1869      C1870   1.404       .  A
C1870      H1876   1.083       .  S
C1877      C1878   1.404       .  A
C1877      C1882   1.407       .  A
C1878      C1879   1.405       .  A
C1879      C1880   1.406       .  A
C1879      H1888   1.082       .  S
C1880      C1886   1.415       .  A
C1880      C1881   1.414       .  A
C1881      C1883   1.398       .  A
C1881      C1882   1.405       .  A
C1882      H1889   1.084       .  S
C1883      C1884   1.394       .  A
C1883      H1890   1.084       .  S
C1884      C1885   1.409       .  A
C1884      H1891   1.083       .  S
C1885      C1886   1.412       .  A
C1886      H1892   1.083       .  S
C1893      C1894   1.399       .  A
C1893      C1898   1.397       .  A
C1894      C1895   1.398       .  A
C1894      H1903   1.083       .  S
C1895      C1896   1.406       .  A
C1895      H1904   1.083       .  S
C1896      C1902   1.398       .  A
C1896      C1897   1.413       .  A
C1897      C1899   1.400       .  A
C1897      C1898   1.391       .  A
C1898      H1905   1.085       .  S
C1899      C1900   1.392       .  A
C1899      H1906   1.084       .  S
C1900      C1901   1.402       .  A
C1900      H2575   1.083       .  S
C1901      C1902   1.403       .  A
C1902      H1908   1.083       .  S
H1907      C2568   1.083       .  S
C1909      C1910   1.405       .  A
C1909      C1914   1.411       .  A
C1910      C1911   1.394       .  A
C1910      H1919   1.083       .  S
C1911      C1912   1.399       .  A
C1911      H1920   1.081       .  S
C1912      C1918   1.402       .  A
C1912      C1913   1.413       .  A
C1913      C1915   1.405       .  A
C1913      C1914   1.407       .  A
C1914      H1921   1.084       .  S
C1915      C1916   1.401       .  A
C1915      H1922   1.084       .  S
C1916      C1917   1.404       .  A
C1916      H1923   1.083       .  S
C1917      C1918   1.398       .  A
C1918      H1924   1.080       .  S
C1925      C1926   1.405       .  A
C1925      C1930   1.407       .  A
C1926      C1927   1.393       .  A
C1926      H1935   1.083       .  S
C1927      C1928   1.400       .  A
C1927      H1936   1.084       .  S
C1928      C1934   1.397       .  A
C1928      C1929   1.415       .  A
C1929      C1931   1.404       .  A
C1929      C1930   1.403       .  A
C1930      H1937   1.084       .  S
C1931      C1932   1.400       .  A
C1931      H1938   1.082       .  S
C1932      C1933   1.401       .  A
C1932      H1939   1.083       .  S
C1933      C1934   1.399       .  A
C1934      H1940   1.084       .  S
C1941      C1942   1.403       .  A
C1941      C1946   1.393       .  A
C1942      C1943   1.403       .  A
C1942      H1951   1.083       .  S
C1943      C1944   1.407       .  A
C1943      H1952   1.084       .  S
C1944      C1950   1.404       .  A
C1944      C1945   1.413       .  A
C1945      C1947   1.397       .  A
C1945      C1946   1.393       .  A
C1946      H1953   1.080       .  S
C1947      C1948   1.388       .  A
C1947      H1954   1.081       .  S
C1948      C1949   1.401       .  A
C1948      H1955   1.083       .  S
C1949      C1950   1.410       .  A
C1950      H1956   1.084       .  S
C1957      C1958   1.405       .  A
C1957      C1962   1.400       .  A
C1958      C1959   1.405       .  A
C1958      H1967   1.083       .  S
C1959      C1960   1.406       .  A
C1959      H1968   1.082       .  S
C1960      C1966   1.412       .  A
C1960      C1961   1.410       .  A
C1961      C1963   1.396       .  A
C1961      C1962   1.404       .  A
C1962      H1969   1.080       .  S
C1963      C1964   1.394       .  A
C1963      H1970   1.077       .  S
C1964      C1965   1.410       .  A
C1964      H1971   1.082       .  S
C1965      C1966   1.417       .  A
C1966      H1972   1.081       .  S
C1973      C1974   1.403       .  A
C1973      C1978   1.398       .  A
C1974      C1975   1.403       .  A
C1974      H1983   1.081       .  S
C1975      C1976   1.407       .  A
C1975      H1984   1.084       .  S
C1976      C1982   1.408       .  A
C1976      C1977   1.415       .  A
C1977      C1979   1.395       .  A
C1977      C1978   1.391       .  A
C1978      H1985   1.085       .  S
C1979      C1980   1.385       .  A
C1979      H1986   1.084       .  S
C1980      C1981   1.404       .  A
C1980      H1987   1.082       .  S
C1981      C1982   1.407       .  A
C1982      H1988   1.084       .  S
C1989      C1990   1.400       .  A
C1989      C1994   1.404       .  A
C1990      C1991   1.399       .  A
C1990      H1999   1.083       .  S
C1991      C1992   1.399       .  A
C1991      H2000   1.074       .  S
C1992      C1998   1.404       .  A
C1992      C1993   1.411       .  A
C1993      C1995   1.400       .  A
C1993      C1994   1.398       .  A
C1994      H2001   1.082       .  S
C1995      C1996   1.394       .  A
C1995      H2002   1.083       .  S
C1996      C1997   1.403       .  A
C1996      H2003   1.083       .  S
C1997      C1998   1.403       .  A
C1998      H2004   1.085       .  S
O2005     Ni2011   1.970   1_554  S
O2005      C2026   1.294       .  A
O2006     Ni2029   1.939       .  S
O2006      C2015   1.299       .  A
O2007     Ni2011   1.785   1_554  S
O2007     Ni2029   1.880   1_554  S
O2007     Ni2023   1.844       .  S
O2007      H2030   0.964       .  S
C2008      O2025   1.295       .  A
C2008      O2017   1.305       .  A
C2008      C2282   1.482       .  S
O2009     Ni2028   1.953   1_556  S
O2009      C2015   1.297       .  A
O2010     Ni2028   1.932       .  S
O2010      C2012   1.270       .  A
Ni2011     O2014   2.009       .  S
Ni2011     O2016   1.953       .  S
C2012      O2022   1.272       .  A
C2012      C2249   1.484       .  S
O2013     Ni2029   1.875       .  S
O2013      C2019   1.295       .  A
O2014      C2019   1.318       .  A
C2015      C2139   1.497       .  S
O2016      C2018   1.281       .  A
O2017     Ni2028   1.983       .  S
C2018      O2024   1.271       .  A
C2018      C2116   1.479       .  S
C2019      C2131   1.475       .  S
H2020      O2021   0.967       .  S
O2021     Ni2029   1.868       .  S
O2021     Ni2023   1.826   1_556  S
O2021     Ni2028   1.829   1_556  S
O2022     Ni2023   1.927       .  S
Ni2023     O2027   1.914       .  S
Ni2023     O2025   1.903       .  S
O2024     Ni2029   1.897       .  S
C2026      O2027   1.288       .  A
C2026      C2265   1.488       .  S
O2031     Ni2037   1.952       .  S
O2031      C2052   1.298       .  A
O2032     Ni2055   1.887       .  S
O2032      C2041   1.282       .  A
O2033     Ni2037   1.831       .  S
O2033     Ni2055   1.821       .  S
O2033     Ni2049   1.871       .  S
O2033      H2056   0.967       .  S
C2034      O2051   1.293       .  A
C2034      O2043   1.318       .  A
C2034      C2273   1.468       .  S
O2035     Ni2054   1.973       .  S
O2035      C2041   1.296       .  A
O2036     Ni2054   1.959       .  S
O2036      C2038   1.285       .  A
Ni2037     O2040   1.986       .  S
Ni2037     O2042   1.933       .  S
C2038      O2048   1.277       .  A
C2038      C2258   1.490       .  S
O2039     Ni2055   1.901       .  S
O2039      C2045   1.293       .  A
O2040      C2045   1.308       .  A
C2041      C2124   1.486       .  S
O2042      C2044   1.268       .  A
O2043     Ni2054   2.010       .  S
C2044      O2050   1.266       .  A
C2044      C2099   1.478       .  S
C2045      C2108   1.485       .  S
H2046      O2047   0.964       .  S
O2047     Ni2055   1.841       .  S
O2047     Ni2049   1.877       .  S
O2047     Ni2054   1.777       .  S
O2048     Ni2049   1.906       .  S
Ni2049     O2053   1.940       .  S
Ni2049     O2051   1.871       .  S
O2050     Ni2055   1.918       .  S
C2052      O2053   1.300       .  A
C2052      C2227   1.497       .  S
O2057     Ni2065   1.919       .  S
O2057      C2067   1.282       .  A
O2058      C2068   1.278       .  A
O2059      C2069   1.286       .  A
O2060     Ni2065   1.933       .  S
O2060      C2070   1.284       .  A
O2061     Ni2066   1.918       .  S
O2061      C2070   1.280       .  A
O2062      C2069   1.280       .  A
O2063      C2068   1.281       .  A
O2064     Ni2066   1.916       .  S
O2064      C2067   1.282       .  A
Ni2065    Ni2066   2.390       .  S
C2067      C2657   1.479       .  S
C2068      C2609   1.459       .  S
C2069      C2649   1.483       .  S
C2070      C2625   1.477       .  S
O2071     Ni2079   1.925       .  S
O2071      C2081   1.281       .  A
O2072     Ni2079   1.918       .  S
O2072      C2082   1.283       .  A
O2073     Ni2079   1.918       .  S
O2073      C2083   1.280       .  A
O2074     Ni2079   1.905       .  S
O2074      C2084   1.279       .  A
O2075     Ni2080   1.910       .  S
O2075      C2084   1.279       .  A
O2076     Ni2080   1.916       .  S
O2076      C2083   1.280       .  A
O2077     Ni2080   1.940       .  S
O2077      C2082   1.285       .  A
O2078     Ni2080   1.933       .  S
O2078      C2081   1.283       .  A
Ni2079    Ni2080   2.390       .  S
C2081      C2585   1.479       .  S
C2082      C2553   1.493       .  S
C2083      C2601   1.464       .  S
C2084      C2561   1.458       .  S
O2085     Ni2093   1.923       .  S
O2085      C2095   1.284       .  A
O2086      C2096   1.281       .  A
O2087      C2097   1.276       .  A
O2088     Ni2093   1.892       .  S
O2088      C2098   1.276       .  A
O2089      C2098   1.285       .  A
O2090     Ni2094   1.939       .  S
O2090      C2097   1.285       .  A
O2091     Ni2094   1.908       .  S
O2091      C2096   1.278       .  A
O2092      C2095   1.277       .  A
C2095      C2497   1.465       .  S
C2096      C2529   1.461       .  S
C2097      C2489   1.477       .  S
C2098      C2521   1.472       .  S
C2099      C2104   1.409       .  A
C2100      C2161   1.484       .  S
C2100      C2101   1.409       .  A
C2101      C2102   1.405       .  A
C2101      H2106   1.085       .  S
C2102      C2593   1.493       .  S
C2103      C2641   1.487       .  S
C2103      C2104   1.396       .  A
C2104      H2105   1.081       .  S
C2107      C2157   1.482       .  S
C2107      C2112   1.412       .  A
C2108      C2109   1.416       .  A
C2109      C2110   1.400       .  A
C2109      H2114   1.083       .  S
C2110      C2577   1.501       .  S
C2111      C2513   1.479       .  S
C2111      C2112   1.395       .  A
C2112      H2113   1.085       .  S
C2115      C2183   1.489       .  S
C2115      C2116   1.416       .  A
C2115      C2120   1.411       .  A
C2116      C2117   1.411       .  A
C2117      C2118   1.405       .  A
C2117      H2122   1.084       .  S
C2118      C2481   1.476       .  S
C2118      C2119   1.421       .  A
C2119      C2633   1.509       .  S
C2119      C2120   1.396       .  A
C2120      H2121   1.083       .  S
C2123      C2160   1.485       .  S
C2123      C2124   1.420       .  A
C2123      C2128   1.418       .  A
C2124      C2125   1.409       .  A
C2125      C2126   1.388       .  A
C2125      H2130   1.085       .  S
C2126      C2537   1.486       .  S
C2126      C2127   1.412       .  A
C2127      C2665   1.485       .  S
C2127      C2128   1.409       .  A
C2128      H2129   1.084       .  S
C2131      C2136   1.405       .  A
C2132      C2186   1.476       .  S
C2132      C2133   1.407       .  A
C2133      C2134   1.397       .  A
C2133      H2138   1.085       .  S
C2134      C2505   1.473       .  S
C2135      C2569   1.472       .  S
C2135      C2136   1.390       .  A
C2136      H2137   1.086       .  S
C2139      C2144   1.411       .  A
C2140      C2187   1.494       .  S
C2140      C2141   1.425       .  A
C2141      C2142   1.401       .  A
C2141      H2146   1.084       .  S
C2142      C2545   1.504       .  S
C2143      C2617   1.476       .  S
C2143      C2144   1.399       .  A
C2144      H2145   1.085       .  S
O2147     Ni2153   1.976       .  S
O2147      C2168   1.295       .  A
O2148     Ni2171   1.920       .  S
O2148      C2157   1.296       .  A
O2149     Ni2153   1.788       .  S
O2149     Ni2171   1.873       .  S
O2149     Ni2165   1.852       .  S
O2149      H2172   0.965       .  S
C2150      O2167   1.292       .  A
C2150      O2159   1.307       .  A
C2150      C2228   1.495       .  S
O2151     Ni2170   1.952       .  S
O2151      C2157   1.299       .  A
O2152     Ni2170   1.930       .  S
O2152      C2154   1.269       .  A
Ni2153     O2156   2.013       .  S
Ni2153     O2158   1.950       .  S
C2154      O2164   1.269       .  A
C2154      C2274   1.476       .  S
O2155     Ni2171   1.879       .  S
O2155      C2161   1.296       .  A
O2156      C2161   1.316       .  A
O2158      C2160   1.281       .  A
O2159     Ni2170   1.992       .  S
C2160      O2166   1.274       .  A
H2162      O2163   0.967       .  S
O2163     Ni2171   1.879       .  S
O2163     Ni2165   1.816       .  S
O2163     Ni2170   1.829       .  S
O2164     Ni2165   1.925       .  S
Ni2165     O2169   1.879       .  S
Ni2165     O2167   1.911       .  S
O2166     Ni2171   1.904       .  S
C2168      O2169   1.281       .  A
C2168      C2257   1.484       .  S
O2173     Ni2179   1.945   1_554  S
O2173      C2194   1.296       .  A
O2174     Ni2197   1.874       .  S
O2174      C2183   1.278       .  A
O2175     Ni2179   1.832       .  S
O2175     Ni2197   1.812       .  S
O2175     Ni2191   1.881   1_556  S
O2175      H2198   0.967   1_556  S
C2176      O2193   1.300       .  A
C2176      O2185   1.319       .  A
C2176      C2250   1.486       .  S
O2177     Ni2196   1.982   1_556  S
O2177      C2183   1.296       .  A
O2178     Ni2196   1.950       .  S
O2178      C2180   1.279       .  A
Ni2179     O2182   1.989       .  S
Ni2179     O2184   1.926       .  S
C2180      O2190   1.276       .  A
C2180      C2266   1.481       .  S
O2181     Ni2197   1.903       .  S
O2181      C2187   1.289       .  A
O2182      C2187   1.305       .  A
O2184      C2186   1.268       .  A
O2185     Ni2196   2.018       .  S
C2186      O2192   1.271       .  A
H2188      O2189   0.964   1_556  S
O2189     Ni2197   1.849   1_554  S
O2189     Ni2191   1.878       .  S
O2189     Ni2196   1.793       .  S
O2190     Ni2191   1.906       .  S
Ni2191     O2195   1.942       .  S
Ni2191     O2193   1.886       .  S
O2192     Ni2197   1.930       .  S
C2194      O2195   1.301       .  A
C2194      C2281   1.483       .  S
O2199      C2209   1.280       .  A
O2200     Ni2207   1.930       .  S
O2200      C2210   1.284       .  A
O2201     Ni2207   1.920       .  S
O2201      C2211   1.282       .  A
O2202      C2212   1.278       .  A
O2203      C2212   1.282       .  A
O2204     Ni2208   1.911       .  S
O2204      C2211   1.279       .  A
O2205     Ni2208   1.906       .  S
O2205      C2210   1.278       .  A
O2206      C2209   1.282       .  A
Ni2207    Ni2208   2.393       .  S
C2209      C2433   1.469       .  S
C2210      C2449   1.470       .  S
C2211      C2473   1.465       .  S
C2212      C2425   1.463       .  S
O2213     Ni2221   1.921       .  S
O2213      C2223   1.281       .  A
O2214     Ni2221   1.919       .  S
O2214      C2224   1.281       .  A
O2215     Ni2221   1.919       .  S
O2215      C2225   1.281       .  A
O2216     Ni2221   1.916       .  S
O2216      C2226   1.280       .  A
O2217     Ni2222   1.917       .  S
O2217      C2226   1.282       .  A
O2218     Ni2222   1.905       .  S
O2218      C2225   1.278       .  A
O2219     Ni2222   1.909       .  S
O2219      C2224   1.279       .  A
O2220     Ni2222   1.926       .  S
O2220      C2223   1.284       .  A
Ni2221    Ni2222   2.393       .  S
C2223      C2385   1.477       .  S
C2224      C2369   1.462       .  S
C2225      C2361   1.458       .  S
C2226      C2409   1.473       .  S
C2227      C2232   1.415       .  A
C2228      C2229   1.421       .  A
C2229      C2230   1.401       .  A
C2229      H2234   1.084       .  S
C2230      C2393   1.488       .  S
C2231      C2417   1.476       .  S
C2231      C2232   1.398       .  A
C2232      H2233   1.084       .  S
O2235      C2245   1.279       .  A
O2236     Ni2243   1.920       .  S
O2236      C2246   1.283       .  A
O2237     Ni2243   1.912       .  S
O2237      C2247   1.281       .  A
O2238      C2248   1.280       .  A
O2239     Ni2244   1.910   1_565  S
O2239      C2248   1.280       .  A
O2240      C2247   1.281       .  A
O2241      C2246   1.281       .  A
O2242     Ni2244   1.906   1_565  S
O2242      C2245   1.281       .  A
C2245      C2289   1.464       .  S
C2246      C2337   1.483       .  S
C2247      C2321   1.477       .  S
C2248      C2313   1.461       .  S
C2249      C2254   1.411       .  A
C2250      C2251   1.412       .  A
C2251      C2252   1.398       .  A
C2251      H2256   1.085       .  S
C2252      C2401   1.483       .  S
C2253      C2441   1.477       .  S
C2253      C2254   1.396       .  A
C2254      H2255   1.084       .  S
C2257      C2258   1.421       .  A
C2257      C2262   1.410       .  A
C2258      C2259   1.417       .  A
C2259      C2260   1.411       .  A
C2259      H2264   1.084       .  S
C2260      C2329   1.478       .  S
C2260      C2261   1.413       .  A
C2261      C2457   1.497       .  S
C2261      C2262   1.388       .  A
C2262      H2263   1.084       .  S
C2265      C2266   1.428       .  A
C2265      C2270   1.415       .  A
C2266      C2267   1.409       .  A
C2267      C2268   1.396       .  A
C2267      H2272   1.085       .  S
C2268      C2465   1.482       .  S
C2268      C2269   1.410       .  A
C2269      C2345   1.488       .  S
C2269      C2270   1.400       .  A
C2270      H2271   1.085       .  S
C2273      C2278   1.402       .  A
C2274      C2275   1.404       .  A
C2275      C2276   1.396       .  A
C2275      H2280   1.085       .  S
C2276      C2297   1.469       .  S
C2277      C2353   1.479       .  S
C2277      C2278   1.390       .  A
C2278      H2279   1.087       .  S
C2281      C2286   1.410       .  A
C2282      C2283   1.412       .  A
C2283      C2284   1.389       .  A
C2283      H2288   1.084       .  S
C2284      C2377   1.483       .  S
C2285      C2305   1.470       .  S
C2285      C2286   1.395       .  A
C2286      H2287   1.085       .  S
C2289      C2290   1.403       .  A
C2289      C2294   1.400       .  A
C2290      C2291   1.399       .  A
C2290      H2299   1.083       .  S
C2291      C2292   1.402       .  A
C2291      H2300   1.081       .  S
C2292      C2298   1.403       .  A
C2292      C2293   1.415       .  A
C2293      C2295   1.398       .  A
C2293      C2294   1.393       .  A
C2294      H2301   1.085       .  S
C2295      C2296   1.388       .  A
C2295      H2302   1.083       .  S
C2296      C2297   1.403       .  A
C2296      H2303   1.084       .  S
C2297      C2298   1.401       .  A
C2305      C2306   1.404       .  A
C2305      C2310   1.395       .  A
C2306      C2307   1.395       .  A
C2307      C2308   1.401       .  A
C2308      C2314   1.400       .  A
C2308      C2309   1.415       .  A
C2309      C2311   1.397       .  A
C2309      C2310   1.397       .  A
C2310      H2317   1.081       .  S
C2311      C2312   1.392       .  A
C2311      H2318   1.080       .  S
C2312      C2313   1.401       .  A
C2312      H2319   1.083       .  S
C2313      C2314   1.403       .  A
C2314      H2320   1.085       .  S
C2321      C2322   1.405       .  A
C2321      C2326   1.407       .  A
C2322      C2323   1.397       .  A
C2322      H2331   1.083       .  S
C2323      C2324   1.398       .  A
C2323      H2332   1.078       .  S
C2324      C2330   1.405       .  A
C2324      C2325   1.413       .  A
C2325      C2327   1.400       .  A
C2325      C2326   1.401       .  A
C2326      H2333   1.084       .  S
C2327      C2328   1.394       .  A
C2327      H2334   1.084       .  S
C2328      C2329   1.406       .  A
C2328      H2335   1.084       .  S
C2329      C2330   1.402       .  A
C2330      H2336   1.084       .  S
C2337      C2338   1.405       .  A
C2337      C2342   1.410       .  A
C2338      C2339   1.398       .  A
C2338      H2347   1.083       .  S
C2339      C2340   1.399       .  A
C2339      H2348   1.080       .  S
C2340      C2346   1.407       .  A
C2340      C2341   1.413       .  A
C2341      C2343   1.402       .  A
C2341      C2342   1.404       .  A
C2342      H2349   1.084       .  S
C2343      C2344   1.397       .  A
C2343      H2350   1.084       .  S
C2344      C2345   1.407       .  A
C2344      H2351   1.083       .  S
C2345      C2346   1.404       .  A
C2346      H2352   1.084       .  S
C2353      C2354   1.404       .  A
C2353      C2358   1.404       .  A
C2354      C2355   1.393       .  A
C2354      H2363   1.083       .  S
C2355      C2356   1.400       .  A
C2355      H2364   1.084       .  S
C2356      C2362   1.395       .  A
C2356      C2357   1.415       .  A
C2357      C2359   1.404       .  A
C2357      C2358   1.400       .  A
C2358      H2365   1.084       .  S
C2359      C2360   1.399       .  A
C2359      H2366   1.084       .  S
C2360      C2361   1.401       .  A
C2360      H2367   1.083       .  S
C2361      C2362   1.397       .  A
C2362      H2368   1.083       .  S
C2369      C2370   1.400       .  A
C2369      C2374   1.402       .  A
C2370      C2371   1.397       .  A
C2370      H2379   1.083       .  S
C2371      C2372   1.403       .  A
C2371      H2380   1.083       .  S
C2372      C2378   1.398       .  A
C2372      C2373   1.413       .  A
C2373      C2375   1.404       .  A
C2373      C2374   1.400       .  A
C2374      H2381   1.083       .  S
C2375      C2376   1.398       .  A
C2375      H2382   1.084       .  S
C2376      C2377   1.403       .  A
C2376      H2383   1.083       .  S
C2377      C2378   1.402       .  A
C2378      H2384   1.078       .  S
C2385      C2386   1.404       .  A
C2385      C2390   1.406       .  A
C2386      C2387   1.396       .  A
C2386      H2395   1.084       .  S
C2387      C2388   1.400       .  A
C2387      H2396   1.084       .  S
C2388      C2394   1.407       .  A
C2388      C2389   1.415       .  A
C2389      C2391   1.402       .  A
C2389      C2390   1.412       .  A
C2390      H2397   1.084       .  S
C2391      C2392   1.400       .  A
C2391      H2398   1.081       .  S
C2392      C2393   1.405       .  A
C2392      H2399   1.083       .  S
C2393      C2394   1.405       .  A
C2394      H2400   1.084       .  S
C2401      C2402   1.404       .  A
C2401      C2406   1.403       .  A
C2402      C2403   1.398       .  A
C2402      H2411   1.083       .  S
C2403      C2404   1.399       .  A
C2403      H2412   1.079       .  S
C2404      C2410   1.408       .  A
C2404      C2405   1.416       .  A
C2405      C2407   1.399       .  A
C2405      C2406   1.405       .  A
C2406      H2413   1.084       .  S
C2407      C2408   1.395       .  A
C2407      H2414   1.084       .  S
C2408      C2409   1.406       .  A
C2408      H2415   1.084       .  S
C2409      C2410   1.403       .  A
C2410      H2416   1.084       .  S
C2417      C2418   1.403       .  A
C2417      C2422   1.398       .  A
C2418      C2419   1.399       .  A
C2418      H2427   1.081       .  S
C2419      C2420   1.402       .  A
C2419      H2428   1.083       .  S
C2420      C2426   1.406       .  A
C2420      C2421   1.416       .  A
C2421      C2423   1.398       .  A
C2421      C2422   1.398       .  A
C2423      C2424   1.391       .  A
C2423      H2430   1.083       .  S
C2424      C2425   1.402       .  A
C2424      H2431   1.083   1_655  S
C2425      C2426   1.403       .  A
C2426      H2432   1.084       .  S
C2433      C2434   1.403       .  A
C2433      C2438   1.407       .  A
C2434      C2435   1.388       .  A
C2434      H2443   1.084       .  S
C2435      C2436   1.396       .  A
C2435      H2444   1.084       .  S
C2436      C2442   1.396       .  A
C2436      C2437   1.415       .  A
C2437      C2439   1.406       .  A
C2437      C2438   1.411       .  A
C2438      H2445   1.084       .  S
C2440      H2447   1.083       .  S
C2441      C2442   1.398       .  A
C2442      H2448   1.085       .  S
C2449      C2450   1.403       .  A
C2449      C2454   1.404       .  A
C2450      C2451   1.399       .  A
C2450      H2459   1.083       .  S
C2451      C2452   1.404       .  A
C2451      H2460   1.081       .  S
C2452      C2458   1.404       .  A
C2452      C2453   1.412       .  A
C2453      C2455   1.403       .  A
C2453      C2454   1.404       .  A
C2454      H2461   1.085       .  S
C2455      C2456   1.399       .  A
C2455      H2462   1.083       .  S
C2456      C2457   1.406       .  A
C2456      H2463   1.083       .  S
C2457      C2458   1.408       .  A
C2458      H2464   1.082       .  S
C2465      C2466   1.399       .  A
C2465      C2470   1.409       .  A
C2466      C2467   1.394       .  A
C2466      H2475   1.083       .  S
C2467      C2468   1.402       .  A
C2467      H2476   1.078       .  S
C2468      C2474   1.399       .  A
C2468      C2469   1.412       .  A
C2469      C2471   1.405       .  A
C2469      C2470   1.402       .  A
C2470      H2477   1.084       .  S
C2471      C2472   1.400       .  A
C2471      H2478   1.083       .  S
C2472      C2473   1.402       .  A
C2472      H2479   1.083       .  S
C2473      C2474   1.402       .  A
C2474      H2480   1.084       .  S
C2481      C2482   1.404       .  A
C2481      C2486   1.396       .  A
C2482      C2483   1.403       .  A
C2482      H2491   1.083       .  S
C2483      C2484   1.404       .  A
C2483      H2492   1.075       .  S
C2484      C2490   1.413       .  A
C2484      C2485   1.415       .  A
C2485      C2487   1.390       .  A
C2485      C2486   1.392       .  A
C2486      H2493   1.085       .  S
C2487      C2488   1.382       .  A
C2487      H2494   1.084       .  S
C2488      C2489   1.409       .  A
C2488      H2495   1.083       .  S
C2489      C2490   1.408       .  A
C2490      H2496   1.083       .  S
C2497      C2498   1.403       .  A
C2497      C2502   1.401       .  A
C2498      C2499   1.396       .  A
C2498      H2507   1.083       .  S
C2499      C2500   1.401       .  A
C2499      H2508   1.079       .  S
C2500      C2506   1.403       .  A
C2500      C2501   1.414       .  A
C2501      C2503   1.399       .  A
C2501      C2502   1.398       .  A
C2502      H2509   1.083       .  S
C2503      C2504   1.392       .  A
C2503      H2510   1.083       .  S
C2504      C2505   1.402       .  A
C2504      H2511   1.084       .  S
C2505      C2506   1.401       .  A
C2506      H2512   1.083       .  S
C2513      C2514   1.402       .  A
C2513      C2518   1.402       .  A
C2514      C2515   1.398       .  A
C2514      H2523   1.081       .  S
C2515      C2516   1.397       .  A
C2515      H2524   1.076       .  S
C2516      C2522   1.401       .  A
C2516      C2517   1.412       .  A
C2517      C2519   1.397       .  A
C2517      C2518   1.395       .  A
C2518      H2525   1.084       .  S
C2519      C2520   1.391       .  A
C2519      H2526   1.084   1_565  S
C2520      C2521   1.408       .  A
C2520      H2527   1.083       .  S
C2521      C2522   1.402       .  A
C2522      H2528   1.084       .  S
C2529      C2530   1.398       .  A
C2529      C2534   1.404       .  A
C2530      C2531   1.399       .  A
C2530      H2539   1.083       .  S
C2531      C2532   1.405       .  A
C2531      H2540   1.082       .  S
C2532      C2538   1.400       .  A
C2532      C2533   1.411       .  A
C2533      C2535   1.403       .  A
C2533      C2534   1.397       .  A
C2534      H2541   1.085       .  S
C2535      C2536   1.397       .  A
C2535      H2542   1.084       .  S
C2536      C2537   1.402       .  A
C2536      H2543   1.083       .  S
C2537      C2538   1.405       .  A
C2538      H2544   1.083       .  S
C2545      C2546   1.406       .  A
C2545      C2550   1.408       .  A
C2546      C2547   1.408       .  A
C2547      C2548   1.408       .  A
C2547      H2556   1.081       .  S
C2548      C2554   1.418       .  A
C2548      C2549   1.413       .  A
C2549      C2551   1.399       .  A
C2549      C2550   1.405       .  A
C2550      H2557   1.084       .  S
C2551      C2552   1.394       .  A
C2551      H2558   1.084       .  S
C2552      C2553   1.408       .  A
C2552      H2559   1.083       .  S
C2553      C2554   1.414       .  A
C2554      H2560   1.084       .  S
C2561      C2562   1.399       .  A
C2561      C2566   1.402       .  A
C2562      C2563   1.395       .  A
C2562      H2571   1.083       .  S
C2563      C2564   1.403       .  A
C2563      H2572   1.078       .  S
C2564      C2570   1.401       .  A
C2564      C2565   1.413       .  A
C2565      C2567   1.401       .  A
C2565      C2566   1.395       .  A
C2566      H2573   1.085       .  S
C2567      C2568   1.393       .  A
C2567      H2574   1.084       .  S
C2568      C2569   1.401       .  A
C2569      C2570   1.402       .  A
C2570      H2576   1.084       .  S
C2577      C2578   1.406       .  A
C2577      C2582   1.413       .  A
C2578      C2579   1.398       .  A
C2578      H2587   1.083       .  S
C2579      C2580   1.402       .  A
C2579      H2588   1.082       .  S
C2580      C2586   1.404       .  A
C2580      C2581   1.411       .  A
C2581      C2583   1.406       .  A
C2581      C2582   1.408       .  A
C2582      H2589   1.084       .  S
C2583      C2584   1.403       .  A
C2583      H2590   1.084       .  S
C2584      C2585   1.403       .  A
C2584      H2591   1.083       .  S
C2585      C2586   1.402       .  A
C2586      H2592   1.076       .  S
C2593      C2594   1.405       .  A
C2593      C2598   1.412       .  A
C2594      C2595   1.392       .  A
C2594      H2603   1.083       .  S
C2595      C2596   1.400       .  A
C2595      H2604   1.084       .  S
C2596      C2602   1.395       .  A
C2596      C2597   1.412       .  A
C2597      C2599   1.408       .  A
C2597      C2598   1.406       .  A
C2598      H2605   1.084       .  S
C2599      C2600   1.404       .  A
C2599      H2606   1.084       .  S
C2600      C2601   1.402       .  A
C2600      H2607   1.083       .  S
C2601      C2602   1.396       .  A
C2602      H2608   1.078       .  S
C2609      C2610   1.401       .  A
C2609      C2614   1.397       .  A
C2610      C2611   1.400       .  A
C2610      H2619   1.083       .  S
C2611      C2612   1.404       .  A
C2611      H2620   1.083       .  S
C2612      C2618   1.402       .  A
C2612      C2613   1.414       .  A
C2613      C2615   1.398       .  A
C2613      C2614   1.396       .  A
C2614      H2621   1.081       .  S
C2615      C2616   1.390       .  A
C2615      H2622   1.078       .  S
C2616      C2617   1.401       .  A
C2616      H2623   1.083       .  S
C2617      C2618   1.406       .  A
C2618      H2624   1.084       .  S
C2625      C2626   1.404       .  A
C2625      C2630   1.400       .  A
C2626      C2627   1.406       .  A
C2626      H2635   1.083       .  S
C2627      C2628   1.407       .  A
C2627      H2636   1.084       .  S
C2628      C2634   1.411       .  A
C2628      C2629   1.412       .  A
C2629      C2631   1.398       .  A
C2629      C2630   1.402       .  A
C2630      H2637   1.081       .  S
C2631      C2632   1.394       .  A
C2631      H2638   1.081       .  S
C2632      C2633   1.409       .  A
C2632      H2639   1.082       .  S
C2633      C2634   1.415       .  A
C2634      H2640   1.082       .  S
C2641      C2642   1.404       .  A
C2641      C2646   1.401       .  A
C2642      C2643   1.405       .  A
C2642      H2651   1.081       .  S
C2643      C2644   1.407       .  A
C2643      H2652   1.083       .  S
C2644      C2650   1.414       .  A
C2644      C2645   1.415       .  A
C2645      C2647   1.395       .  A
C2645      C2646   1.398       .  A
C2646      H2653   1.085       .  S
C2647      C2648   1.389       .  A
C2647      H2654   1.084       .  S
C2648      C2649   1.407       .  A
C2648      H2655   1.083       .  S
C2649      C2650   1.409       .  A
C2650      H2656   1.083       .  S
C2657      C2658   1.403       .  A
C2657      C2662   1.408       .  A
C2658      C2659   1.400       .  A
C2658      H2667   1.083       .  S
C2659      C2660   1.399       .  A
C2659      H2668   1.075       .  S
C2660      C2666   1.409       .  A
C2660      C2661   1.411       .  A
C2661      C2663   1.401       .  A
C2661      C2662   1.404       .  A
C2662      H2669   1.083       .  S
C2663      C2664   1.398       .  A
C2663      H2670   1.084       .  S
C2664      C2665   1.406       .  A
C2664      H2671   1.083       .  S
C2665      C2666   1.404       .  A
C2666      H2672   1.084       .  S
