geometry optimzed in LAMMPS
_audit_creation_date              2020-11-30 
_audit_creation_method            'lammps2cif' 
_symmetry_space_group_name_H-M    'P1' 
_symmetry_Int_Tables_number       1 
_symmetry_cell_setting            triclinic 
loop_ 
_symmetry_equiv_pos_as_xyz 
  x,y,z 
_cell_length_a                    41.7817739 
_cell_length_b                    42.08776810448274 
_cell_length_c                    29.237575753253527 
_cell_angle_alpha                 80.63953133582727 
_cell_angle_beta                  80.5615932052167 
_cell_angle_gamma                 87.14775128140182 
loop_ 
_atom_site_label 
_atom_site_type_symbol 
_atom_site_fract_x 
_atom_site_fract_y 
_atom_site_fract_z 
_atom_site_charge 
N1          N  0.14633210  0.52718296  0.23726347    -0.03500
C2          C  0.14413061  0.52890226  0.19113551    -0.00900
C3          C  0.17993737  0.98564991  0.17392444    -0.23800
C4          C  0.20010409  0.98263307  0.20720088    -0.24000
C5          C  0.18114604  0.98764271  0.24922801    -0.01000
H6          H  0.18664129  0.98208780  0.13771013     0.12700
H7          H  0.22541819  0.97560746  0.20100314     0.12800
N8          N  0.22396763  0.98643183  0.30219364    -0.03500
C9          C  0.22389302  0.98108134  0.34918206    -0.00900
C10         C  0.19288046  0.97495477  0.37266870    -0.23800
C11         C  0.17334212  0.97594284  0.33892337    -0.24000
C12         C  0.19281908  0.98357231  0.29556785    -0.01000
H13         H  0.18503896  0.97073366  0.41024702     0.12700
H14         H  0.14775623  0.97100861  0.34621685     0.12800
N15         N  0.41644341  0.22049370  0.24510439    -0.03500
C16         C  0.41627477  0.21769160  0.19957905    -0.00900
C17         C  0.41772284  0.24744377  0.17195924    -0.23800
C18         C  0.41822828  0.26960923  0.20133848    -0.24000
C19         C  0.41686508  0.25290395  0.24674723    -0.01000
H20         H  0.41865310  0.25251044  0.13428602     0.12700
H21         H  0.41955694  0.29505972  0.18917522     0.12800
N22         N  0.41759929  0.30090110  0.29117806    -0.03500
C23         C  0.41598880  0.30419760  0.33681875    -0.00900
C24         C  0.41179130  0.27469974  0.36503780    -0.23800
C25         C  0.41098645  0.25232894  0.33571916    -0.24000
C26         C  0.41517832  0.26867812  0.28992035    -0.01000
H27         H  0.40983554  0.26989265  0.40287729     0.12700
H28         H  0.40756709  0.22697676  0.34774391     0.12800
N29         N  0.41010038  0.07808556  0.05711177    -0.06200
N30         N  0.39742502  0.09587922  0.08913857    -0.58300
N31         N  0.44139370  0.07797464  0.44401056    -0.05900
N32         N  0.45010571  0.09886177  0.40546604    -0.60400
N33         N  0.40959160  0.07567960  0.45270859    -0.05400
N34         N  0.39629211  0.09499630  0.42011054    -0.58300
N35         N  0.44185427  0.08044613  0.04850783    -0.05100
N36         N  0.45137326  0.09980663  0.07467215    -0.60800
C37         C  0.42348870  0.10908745  0.10023650     0.96000
C38         C  0.42180005  0.10927738  0.39035546     0.95800
N39         N  0.00602527  0.49964557  0.45202034    -0.06400
N40         N  0.02766995  0.48931880  0.41910960    -0.58900
N41         N  0.01008293  0.02350675  0.04670648    -0.04500
N42         N  0.02919318  0.03248941  0.07381289    -0.60100
N43         N  0.00522111  0.50134832  0.05595661    -0.06400
N44         N  0.02479393  0.49263519  0.08733741    -0.59100
N45         N  0.01004675  0.02561410  0.44084718    -0.04100
N46         N  0.03034077  0.03501182  0.40173445    -0.60200
Mn47       Mn  0.47218229  0.05496901  0.49595639     1.18400
C48         C  0.03989304  0.00722540  0.38499061     0.98100
C49         C  0.03880908  0.00448159  0.09822501     0.98800
N50         N  0.36170261  0.01652694  0.48273935    -0.06400
N51         N  0.34127125  0.02466496  0.45264469    -0.62700
N52         N  0.36687078  0.50298497  0.08642590    -0.05200
N53         N  0.34568118  0.49367192  0.12456276    -0.63400
N54         N  0.36175401  0.02030498  0.08678974    -0.05900
N55         N  0.34136193  0.03058428  0.12122793    -0.63000
N56         N  0.36624389  0.50568261  0.48026835    -0.04800
N57         N  0.34641075  0.49739384  0.45366651    -0.63700
Mn58       Mn  0.38495615  0.04833946  0.01957286     1.10700
C59         C  0.33241638  0.99616923  0.44337088     0.99300
C60         C  0.33292983  0.00347300  0.15206380     0.99400
N61         N  0.44884252  0.43974453  0.07768100    -0.05900
N62         N  0.45873980  0.41850499  0.11131304    -0.61300
N63         N  0.41497915  0.44618785  0.47844429    -0.05200
N64         N  0.40155958  0.42939374  0.45242127    -0.58000
N65         N  0.44674727  0.44262026  0.47055404    -0.06600
N66         N  0.45542916  0.42326942  0.43904452    -0.60900
N67         N  0.41706715  0.44336533  0.08563522    -0.05500
N68         N  0.40485999  0.42462685  0.12475314    -0.58000
Mn69       Mn  0.47795461  0.46405830  0.01240041     1.20200
Mn70       Mn  0.39084681  0.47351958  0.03381366     1.10100
Cl71       Cl  0.43321117  0.00847515  0.01968431    -0.86000
C72         C  0.43110727  0.40929725  0.14083977     0.96300
C73         C  0.42700445  0.41529108  0.42754699     0.96100
C74         C  0.39393015  0.35636007  0.36007228    -0.20400
C75         C  0.42027964  0.33461107  0.35457721    -0.06900
C76         C  0.44935923  0.34077482  0.36994734     0.13900
C77         C  0.45093941  0.36773564  0.39209722    -0.20400
C78         C  0.42410413  0.38882097  0.39997602    -0.06900
C79         C  0.39535923  0.38337355  0.38250979     0.13900
C80         C  0.36601510  0.40566491  0.38714223    -0.23800
H81         H  0.37168011  0.35156960  0.34828121     0.15200
H82         H  0.47327141  0.37169589  0.40444047     0.15200
C83         C  0.47918532  0.31923603  0.36397266    -0.23700
H84         H  0.34677140  0.39875326  0.36879577     0.05500
H85         H  0.37297999  0.43067757  0.37143999     0.08700
H86         H  0.35536008  0.40475325  0.42465370     0.08700
H87         H  0.49983556  0.33357353  0.34344462     0.08700
H88         H  0.47613321  0.29901803  0.34518441     0.08700
H89         H  0.48538433  0.30901012  0.39898462     0.05400
C90         C  0.45167746  0.34091616  0.23664563    -0.20400
C91         C  0.42110293  0.32760339  0.25312694    -0.06900
C92         C  0.39390323  0.34178993  0.23421471     0.13900
C93         C  0.39800656  0.36850905  0.19828158    -0.20400
C94         C  0.42877986  0.38158675  0.18039858    -0.06900
C95         C  0.45601476  0.36762518  0.20047325     0.13900
C96         C  0.48962581  0.38078454  0.18493381    -0.23800
H97         H  0.47223442  0.33016953  0.25231305     0.15200
H98         H  0.37693845  0.37886971  0.18362196     0.15200
C99         C  0.36069286  0.32806396  0.25121408    -0.23700
H100        H  0.50733604  0.36788159  0.20631099     0.05500
H101        H  0.48939035  0.40662169  0.18874335     0.08700
H102        H  0.49835575  0.37788168  0.14787802     0.08700
H103        H  0.35377262  0.32838549  0.28938008     0.08700
H104        H  0.36067670  0.30283489  0.24464952     0.08700
H105        H  0.34194507  0.34202898  0.23294962     0.05400
C106        C  0.44730750  0.15576041  0.33373588    -0.20400
C107        C  0.41929176  0.13768617  0.35230450    -0.06900
C108        C  0.39017967  0.14739172  0.33398306     0.13900
C109        C  0.38986135  0.17498004  0.29929912    -0.20400
C110        C  0.41766623  0.19329618  0.28216943    -0.06900
C111        C  0.44691087  0.18306210  0.29888976     0.13900
C112        C  0.01174733  0.19162126  0.26255883    -0.23800
H113        H  0.46995315  0.14862344  0.34639400     0.15200
H114        H  0.36778259  0.18239976  0.28515819     0.15200
C115        C  0.35946162  0.12865111  0.34967914    -0.23700
H116        H  0.02522417  0.17143885  0.24723427     0.05500
H117        H  0.02488555  0.19844453  0.28945054     0.08700
H118        H  0.47571806  0.22081152  0.25202211     0.08700
H119        H  0.35049756  0.12944305  0.38736280     0.08700
H120        H  0.36413978  0.10330477  0.34387058     0.08700
H121        H  0.33981796  0.13876476  0.32979289     0.05400
C122        C  0.39263107  0.15388731  0.13444981    -0.20400
C123        C  0.42113509  0.13471916  0.13020698    -0.06900
C124        C  0.44674979  0.14103682  0.15367962     0.13900
C125        C  0.44364116  0.16714021  0.17865984    -0.20400
C126        C  0.41598446  0.18730607  0.18033419    -0.06900
C127        C  0.38990065  0.18030712  0.15865571     0.13900
C128        C  0.35923167  0.20083013  0.16083047    -0.23800
H129        H  0.37274134  0.14898353  0.11712303     0.15200
H130        H  0.46371544  0.17280143  0.19532034     0.15200
C131        C  0.47738042  0.12055005  0.15252524    -0.23700
H132        H  0.34078144  0.19117732  0.14370273     0.05500
H133        H  0.36453377  0.22567381  0.14259792     0.08700
H134        H  0.34861658  0.20157105  0.19804042     0.08700
H135        H  0.01752024  0.13076374  0.09145328     0.08700
H136        H  0.47135388  0.09487934  0.16496321     0.08700
H137        H  0.02723101  0.13684613  0.14669861     0.05400
C138        C  0.26951429  0.01248275  0.36094700    -0.20400
C139        C  0.25244998  0.98371102  0.37224118    -0.06900
C140        C  0.26242260  0.95864077  0.40569979     0.13900
C141        C  0.28902772  0.96327459  0.42736979    -0.20400
C142        C  0.30562986  0.99246098  0.41713636    -0.06900
C143        C  0.29596625  0.01725222  0.38283527     0.13900
C144        C  0.31350637  0.04863303  0.36829129    -0.23800
H145        H  0.26158278  0.03168825  0.33561095     0.15200
H146        H  0.30835511  0.47681468  0.40600019     0.15200
C147        C  0.25807638  0.46892191  0.36226746    -0.23700
H148        H  0.30399344  0.06404372  0.33865932     0.05500
H149        H  0.33971197  0.04382978  0.35670590     0.08700
H150        H  0.31032594  0.06250785  0.39796204     0.08700
H151        H  0.25995210  0.46770228  0.32436928     0.08700
H152        H  0.22029897  0.93012647  0.43574444     0.08700
H153        H  0.27162919  0.44780950  0.37840199     0.05400
C154        C  0.25894413  0.02213986  0.24163172    -0.20400
C155        C  0.25242531  0.99128974  0.26682827    -0.06900
C156        C  0.27343604  0.96528529  0.25637944     0.13900
C157        C  0.30009941  0.97058524  0.22037185    -0.20400
C158        C  0.30615383  0.00116559  0.19327800    -0.06900
C159        C  0.28558454  0.02756236  0.20511132     0.13900
C160        C  0.29098636  0.06140983  0.17957506    -0.23800
H161        H  0.24270427  0.04191673  0.25032236     0.15200
H162        H  0.31563349  0.95015816  0.21247247     0.15200
C163        C  0.26736051  0.93130468  0.28085972    -0.23700
H164        H  0.27305693  0.07881751  0.19463646     0.05500
H165        H  0.32544626  0.59108017  0.15880010     0.08500
H166        H  0.31553321  0.06913423  0.18233139     0.08700
H167        H  0.24422731  0.92906903  0.30560180     0.08700
H168        H  0.28756075  0.92266607  0.30044597     0.08700
H169        H  0.26603722  0.91540967  0.25444143     0.05400
C170        C  0.09010770  0.02874702  0.33298114    -0.20400
C171        C  0.06687365  0.00446372  0.34558383    -0.06900
C172        C  0.08819503  0.49130496  0.34337286     0.13900
C173        C  0.11426796  0.49500964  0.30578160    -0.20400
C174        C  0.12168571  0.99857366  0.27620019    -0.06900
C175        C  0.11736475  0.02617087  0.29837298     0.13900
C176        C  0.14128996  0.05298424  0.28502093    -0.23800
H177        H  0.08731631  0.04956699  0.35086882     0.15200
H178        H  0.13122142  0.47514821  0.30034937     0.15200
C179        C  0.08510381  0.45930779  0.37532067    -0.23700
H180        H  0.13366289  0.07337107  0.30447341     0.05500
H181        H  0.14326650  0.06218910  0.24688746     0.08700
H182        H  0.16550790  0.04424118  0.29306020     0.08700
H183        H  0.06177352  0.44827456  0.37392687     0.08700
H184        H  0.08648564  0.46265971  0.41183073     0.08700
H185        H  0.10487256  0.44204088  0.36482249     0.05400
C186        C  0.08269379  0.97190379  0.13265808    -0.20400
C187        C  0.06550747  0.00146626  0.12679083    -0.06900
C188        C  0.07455683  0.02707426  0.14779421     0.13900
C189        C  0.10163364  0.02303987  0.17118273    -0.20400
C190        C  0.11961698  0.99404017  0.17464385    -0.06900
C191        C  0.09642296  0.49786398  0.17805665     0.13900
C192        C  0.10644304  0.46700241  0.20661003    -0.23800
H193        H  0.05624154  0.47509873  0.16004736     0.15200
H194        H  0.10917307  0.04279714  0.18622663     0.15200
C195        C  0.05549667  0.05837032  0.14701772    -0.23700
H196        H  0.10990081  0.44758919  0.18456024     0.05500
H197        H  0.10680667  0.91679544  0.18094681     0.08700
H198        H  0.12959818  0.46890910  0.21960317     0.08700
H199        H  0.02975112  0.05336389  0.16204535     0.08700
H200        H  0.07104030  0.57902411  0.05068994     0.08700
H201        H  0.06465068  0.07454158  0.16821201     0.05400
N202        N  0.14664704  0.52345874  0.73827274    -0.03500
C203        C  0.14454394  0.52550983  0.69215041    -0.00900
C204        C  0.17993257  0.98554206  0.67368727    -0.23800
C205        C  0.20006877  0.98244135  0.70701378    -0.24000
C206        C  0.18109490  0.98745985  0.74902433    -0.01000
H207        H  0.18665288  0.98201616  0.63745940     0.12700
H208        H  0.22537453  0.97537717  0.70085630     0.12800
N209        N  0.22386923  0.98633774  0.80203719    -0.03500
C210        C  0.22376710  0.98104050  0.84902941    -0.00900
C211        C  0.19275825  0.97485750  0.87249085    -0.23800
C212        C  0.17325240  0.97575755  0.83872252    -0.24000
C213        C  0.19274249  0.98339495  0.79537992    -0.01000
H214        H  0.18490038  0.97064636  0.91006587     0.12700
H215        H  0.14767884  0.97076427  0.84599096     0.12800
N216        N  0.41627369  0.22078975  0.74479700    -0.03500
C217        C  0.41607203  0.21791282  0.69929784    -0.00900
C218        C  0.41739703  0.24764384  0.67161667    -0.23800
C219        C  0.41784709  0.26986999  0.70091511    -0.24000
C220        C  0.41659329  0.25323172  0.74633937    -0.01000
H221        H  0.41828027  0.25265737  0.63394805     0.12700
H222        H  0.41906536  0.29532443  0.68869255     0.12800
N223        N  0.41734861  0.30135572  0.79057653    -0.03500
C224        C  0.41591841  0.30467785  0.83618969    -0.00900
C225        C  0.41182405  0.27518954  0.86445812    -0.23800
C226        C  0.41091261  0.25279150  0.83523378    -0.24000
C227        C  0.41494546  0.26910349  0.78942262    -0.01000
H228        H  0.41004572  0.27040269  0.90227684     0.12700
H229        H  0.40756008  0.22743958  0.84733015     0.12800
N230        N  0.41020768  0.07791282  0.55736184    -0.06200
N231        N  0.39750629  0.09576907  0.58929662    -0.58300
N232        N  0.44125457  0.07818936  0.94373522    -0.05900
N233        N  0.44996230  0.09912362  0.90523504    -0.60400
N234        N  0.40944878  0.07590621  0.95245058    -0.05400
N235        N  0.39614821  0.09527760  0.91990115    -0.58300
N236        N  0.44196020  0.08028877  0.54878052    -0.05100
N237        N  0.45145105  0.09972143  0.57486992    -0.60800
C238        C  0.42354999  0.10903260  0.60036843     0.96000
C239        C  0.42165502  0.10957861  0.89015747     0.95800
N240        N  0.00507686  0.49975471  0.95103653    -0.06400
N241        N  0.02610940  0.48897071  0.91789270    -0.58900
N242        N  0.00992981  0.02413575  0.54657496    -0.04500
N243        N  0.02914828  0.03307170  0.57357579    -0.60100
N244        N  0.00528036  0.50038080  0.55713424    -0.06400
N245        N  0.02474382  0.49128934  0.58850298    -0.59100
N246        N  0.01009711  0.02496490  0.94100627    -0.04100
N247        N  0.03036350  0.03441277  0.90189061    -0.60200
Mn248      Mn  0.47205758  0.05513975  0.99566059     1.18400
C249        C  0.03994792  0.00666118  0.88508137     0.98100
C250        C  0.03875941  0.00504009  0.59794527     0.98800
N251        N  0.36152979  0.01672472  0.98256125    -0.06400
N252        N  0.34108945  0.02484229  0.95247223    -0.62700
N253        N  0.36688961  0.50311084  0.58579427    -0.05200
N254        N  0.34599909  0.49343697  0.62406825    -0.63400
N255        N  0.36188757  0.02009389  0.58696432    -0.05900
N256        N  0.34147505  0.03037424  0.62137607    -0.63000
N257        N  0.36660522  0.50445256  0.98114014    -0.04800
N258        N  0.34711656  0.49550663  0.95462805    -0.63700
Mn259      Mn  0.38509852  0.04813413  0.51979706     1.10700
C260        C  0.33222604  0.99633319  0.94324980     0.99300
C261        C  0.33300705  0.00326296  0.65218289     0.99400
N262        N  0.44844078  0.43985811  0.57638985    -0.05900
N263        N  0.45830701  0.41861100  0.61003746    -0.61300
N264        N  0.41530959  0.44535507  0.98003236    -0.05200
N265        N  0.40186355  0.42870458  0.95385945    -0.58000
N266        N  0.44708031  0.44189900  0.97193541    -0.06600
N267        N  0.45574505  0.42272922  0.94016492    -0.60900
N268        N  0.41666091  0.44344291  0.58421387    -0.05500
N269        N  0.40441688  0.42467365  0.62330112    -0.58000
Mn270      Mn  0.47762974  0.46441999  0.51141978     1.20200
Mn271      Mn  0.39054959  0.47408171  0.53258134     1.10100
Cl272      Cl  0.43335797  0.00828251  0.51992582    -0.86000
C273        C  0.43065238  0.40935318  0.63946685     0.96300
C274        C  0.42729043  0.41477501  0.92871610     0.96100
C275        C  0.39411535  0.35683513  0.85977166    -0.20400
C276        C  0.42040474  0.33505142  0.85394149    -0.06900
C277        C  0.44950872  0.34095066  0.86947140     0.13900
C278        C  0.45115799  0.36764071  0.89216389    -0.20400
C279        C  0.42435905  0.38869175  0.90047450    -0.06900
C280        C  0.39560366  0.38356144  0.88279628     0.13900
C281        C  0.36629271  0.40586680  0.88787599    -0.23800
H282        H  0.37184100  0.35224206  0.84787748     0.15200
H283        H  0.47349680  0.37137979  0.90464865     0.15200
C284        C  0.47927402  0.31936368  0.86317255    -0.23700
H285        H  0.34703676  0.39924323  0.86931309     0.05500
H286        H  0.37329615  0.43095190  0.87268339     0.08700
H287        H  0.35563340  0.40460771  0.92544069     0.08700
H288        H  0.49998442  0.33375591  0.84295985     0.08700
H289        H  0.47618585  0.29940517  0.84390958     0.08700
H290        H  0.48540259  0.30878273  0.89809230     0.05400
C291        C  0.45133535  0.34130791  0.73572999    -0.20400
C292        C  0.42077277  0.32802698  0.75244634    -0.06900
C293        C  0.39353142  0.34217058  0.73358396     0.13900
C294        C  0.39758806  0.36877573  0.69743316    -0.20400
C295        C  0.42835420  0.38179191  0.67928560    -0.06900
C296        C  0.45562540  0.36790602  0.69936018     0.13900
C297        C  0.48924044  0.38101894  0.68360152    -0.23800
H298        H  0.47192934  0.33060942  0.75135003     0.15200
H299        H  0.37649048  0.37909091  0.68280875     0.15200
C300        C  0.36032230  0.32851408  0.75087315    -0.23700
H301        H  0.50698347  0.36818557  0.70498214     0.05500
H302        H  0.48904683  0.40689040  0.68720521     0.08700
H303        H  0.49790277  0.37797559  0.64658385     0.08700
H304        H  0.35350982  0.32901402  0.78901380     0.08700
H305        H  0.36024526  0.30322997  0.74456458     0.08700
H306        H  0.34153936  0.34241727  0.73261034     0.05400
C307        C  0.44711931  0.15618504  0.83368709    -0.20400
C308        C  0.41914522  0.13801345  0.85212043    -0.06900
C309        C  0.39006947  0.14763196  0.83365231     0.13900
C310        C  0.38973837  0.17522010  0.79896012    -0.20400
C311        C  0.41749901  0.19362622  0.78193954    -0.06900
C312        C  0.44671526  0.18348327  0.79881697     0.13900
C313        C  0.01170384  0.19190167  0.76415472    -0.23800
H314        H  0.46973899  0.14912185  0.84646403     0.15200
H315        H  0.36768511  0.18255868  0.78470657     0.15200
C316        C  0.35940936  0.12878205  0.84918325    -0.23700
H317        H  0.02551715  0.17184394  0.74894827     0.05500
H318        H  0.02451290  0.19886720  0.79129590     0.08700
H319        H  0.47548297  0.22131457  0.75207594     0.08700
H320        H  0.35034095  0.12954342  0.88684715     0.08700
H321        H  0.36420658  0.10344832  0.84337248     0.08700
H322        H  0.33979590  0.13882696  0.82919383     0.05400
C323        C  0.39263238  0.15392074  0.63428728    -0.20400
C324        C  0.42115254  0.13476822  0.63018602    -0.06900
C325        C  0.44672788  0.14118981  0.65366454     0.13900
C326        C  0.44354474  0.16734381  0.67856311    -0.20400
C327        C  0.41586265  0.18747985  0.68012008    -0.06900
C328        C  0.38983561  0.18040197  0.65838003     0.13900
C329        C  0.35914813  0.20089725  0.66037408    -0.23800
H330        H  0.37277840  0.14895068  0.61693949     0.15200
H331        H  0.46358064  0.17306694  0.69525226     0.15200
C332        C  0.47739344  0.12075783  0.65260616    -0.23700
H333        H  0.34074223  0.19116696  0.64325146     0.05500
H334        H  0.36443953  0.22571613  0.64203131     0.08700
H335        H  0.34847908  0.20171870  0.69754248     0.08700
H336        H  0.01732881  0.12975120  0.59398982     0.08700
H337        H  0.47140884  0.09508730  0.66514388     0.08700
H338        H  0.02625516  0.13542195  0.64985021     0.05400
C339        C  0.26930026  0.01254960  0.86084223    -0.20400
C340        C  0.25229866  0.98373929  0.87210961    -0.06900
C341        C  0.26231381  0.95868584  0.90555125     0.13900
C342        C  0.28889703  0.96337107  0.92723399    -0.20400
C343        C  0.30544313  0.99259080  0.91702124    -0.06900
C344        C  0.29573730  0.01736831  0.88273483     0.13900
C345        C  0.31321944  0.04878269  0.86820649    -0.23800
H346        H  0.26133499  0.03174181  0.83551664     0.15200
H347        H  0.30700593  0.47353596  0.91242048     0.15200
C348        C  0.25630528  0.46449522  0.87021701    -0.23700
H349        H  0.30367561  0.06418276  0.83859256     0.05500
H350        H  0.33943187  0.04402775  0.85659995     0.08700
H351        H  0.31001833  0.06264482  0.89789241     0.08700
H352        H  0.25767332  0.46149862  0.83297310     0.08700
H353        H  0.22024586  0.93007799  0.93553807     0.08700
H354        H  0.26935138  0.44368873  0.88808564     0.05400
C355        C  0.25896592  0.02201021  0.74159556    -0.20400
C356        C  0.25234787  0.99115695  0.76670972    -0.06900
C357        C  0.27330400  0.96511533  0.75626188     0.13900
C358        C  0.30001084  0.97038090  0.72032171    -0.20400
C359        C  0.30617505  0.00097102  0.69331782    -0.06900
C360        C  0.28566537  0.02740502  0.70516667     0.13900
C361        C  0.29120358  0.06126858  0.67976310    -0.23800
H362        H  0.24277020  0.04181561  0.75029529     0.15200
H363        H  0.31549931  0.94992582  0.71241357     0.15200
C364        C  0.26712987  0.93113721  0.78068524    -0.23700
H365        H  0.27331825  0.07870278  0.69484969     0.05500
H366        H  0.32211090  0.59092894  0.65630461     0.08500
H367        H  0.31576835  0.06888419  0.68263171     0.08700
H368        H  0.24398494  0.92894307  0.80540627     0.08700
H369        H  0.28730122  0.92242113  0.80029031     0.08700
H370        H  0.26577351  0.91528037  0.75422942     0.05400
C371        C  0.09008773  0.02834711  0.83304330    -0.20400
C372        C  0.06690741  0.00400776  0.84559672    -0.06900
C373        C  0.08347457  0.48834977  0.83830964     0.13900
C374        C  0.11031742  0.49136126  0.80188629    -0.20400
C375        C  0.12163563  0.99839532  0.77595498    -0.06900
C376        C  0.11730135  0.02590948  0.79831138     0.13900
C377        C  0.14117308  0.05277322  0.78504396    -0.23800
H378        H  0.08728925  0.04910418  0.85106422     0.15200
H379        H  0.12487749  0.47030751  0.79420988     0.15200
C380        C  0.07589929  0.45516307  0.86515132    -0.23700
H381        H  0.13354882  0.07307640  0.80466818     0.05500
H382        H  0.14306692  0.06209234  0.74695382     0.08700
H383        H  0.16542905  0.04404140  0.79293034     0.08700
H384        H  0.05103018  0.44866209  0.86191370     0.08700
H385        H  0.07813183  0.45440715  0.90262488     0.08700
H386        H  0.09290419  0.43648911  0.85154024     0.05400
C387        C  0.08249822  0.97224295  0.63245467    -0.20400
C388        C  0.06554817  0.00193337  0.62637913    -0.06900
C389        C  0.07488402  0.02754791  0.64711306     0.13900
C390        C  0.10194933  0.02335615  0.67052391    -0.20400
C391        C  0.11965604  0.99420027  0.67425920    -0.06900
C392        C  0.09878579  0.49414489  0.67500277     0.13900
C393        C  0.11114166  0.46242919  0.69848381    -0.23800
H394        H  0.05993017  0.47122516  0.65411720     0.15200
H395        H  0.10968012  0.04309766  0.68541329     0.15200
C396        C  0.05609565  0.05899618  0.64612158    -0.23700
H397        H  0.11619809  0.44543540  0.67268938     0.05500
H398        H  0.10623031  0.91705341  0.68113038     0.08700
H399        H  0.13390802  0.46463202  0.71238685     0.08700
H400        H  0.03034963  0.05417393  0.66131516     0.08700
H401        H  0.06688180  0.58224886  0.56164267     0.08700
H402        H  0.06545476  0.07518461  0.66709729     0.05400
N403        N  0.14991220  0.99405888  0.24204780    -0.03500
C404        C  0.14926357  0.99204131  0.19652338    -0.00900
C405        C  0.17358707  0.53689384  0.16375650    -0.23800
C406        C  0.19489000  0.53963323  0.19393588    -0.24000
C407        C  0.17792797  0.53298119  0.23920410    -0.01000
H408        H  0.17878584  0.54121922  0.12578162     0.12700
H409        H  0.21968336  0.54704883  0.18311067     0.12800
N410        N  0.22461349  0.52871277  0.28661211    -0.03500
C411        C  0.22688187  0.53167214  0.33142905    -0.00900
C412        C  0.19684187  0.53776771  0.35607908    -0.23800
C413        C  0.17505672  0.53869639  0.32542165    -0.24000
C414        C  0.19245245  0.53302511  0.28268638    -0.01000
H415        H  0.19145876  0.54180284  0.39220662     0.12700
H416        H  0.14952908  0.54439584  0.33384726     0.12800
N417        N  0.46067083  0.72225738  0.23522841    -0.03500
C418        C  0.45997240  0.72143768  0.18930557    -0.00900
C419        C  0.46400535  0.75186535  0.16373275    -0.23800
C420        C  0.46673258  0.77221524  0.19525943    -0.24000
C421        C  0.46368896  0.75377031  0.23964857    -0.01000
H422        H  0.46491936  0.75853017  0.12622324     0.12700
H423        H  0.47066260  0.79778149  0.18570446     0.12800
N424        N  0.45600367  0.79844675  0.29099442    -0.03500
C425        C  0.45765810  0.79982822  0.33646733    -0.00900
C426        C  0.46422195  0.76981222  0.35991473    -0.23800
C427        C  0.46690561  0.74903590  0.32760176    -0.24000
C428        C  0.46193662  0.76703819  0.28487994    -0.01000
H429        H  0.46742895  0.76371574  0.39629822     0.12700
H430        H  0.47280876  0.72399893  0.33551294     0.12800
N431        N  0.42867725  0.58274291  0.05460959    -0.06200
N432        N  0.41985802  0.60320165  0.08456363    -0.58300
N433        N  0.45960450  0.58125262  0.44221886    -0.05900
N434        N  0.47226078  0.59940472  0.40284487    -0.60400
N435        N  0.42784060  0.58504981  0.44958502    -0.05400
N436        N  0.41839628  0.60594478  0.41520888    -0.58300
N437        N  0.46047787  0.57903711  0.04718006    -0.05100
N438        N  0.47372149  0.59683269  0.07204496    -0.60800
C439        C  0.44821232  0.61166792  0.09570518     0.96000
C440        C  0.44631087  0.61461767  0.38591511     0.95800
N441        N  0.00772096  0.99408989  0.44811162    -0.06400
N442        N  0.02612612  0.98154118  0.41412540    -0.58900
N443        N  0.00202483  0.53289035  0.04780057    -0.04500
N444        N  0.01895271  0.54613693  0.07357347    -0.60100
N445        N  0.00816520  0.99194049  0.05362012    -0.06400
N446        N  0.02595502  0.97892610  0.08550657    -0.59100
N447        N  0.00336899  0.53127369  0.44428570    -0.04100
N448        N  0.02334155  0.54292771  0.40588283    -0.60200
Mn449      Mn  0.48537287  0.55083856  0.49376128     1.18400
C450        C  0.03839899  0.51645625  0.39027949     0.98100
C451        C  0.03326925  0.52098054  0.09802156     0.98800
N452        N  0.36893375  0.53716065  0.47356560    -0.06400
N453        N  0.35087330  0.55079151  0.44233223    -0.62700
N454        N  0.36555411  0.98881387  0.09560183    -0.05200
N455        N  0.34794703  0.97721301  0.13606778    -0.63400
N456        N  0.36943683  0.53452047  0.07929995    -0.05900
N457        N  0.35010985  0.54708214  0.11263112    -0.63000
N458        N  0.36500423  0.98500185  0.49188035    -0.04800
N459        N  0.34689331  0.97114392  0.46816536    -0.63700
Mn460      Mn  0.39811985  0.56011844  0.01420407     1.10700
C461        C  0.33696065  0.52574291  0.42989969     0.99300
C462        C  0.33556803  0.52137245  0.14108068     0.99400
N463        N  0.45655581  0.94165590  0.08712732    -0.05900
N464        N  0.46970753  0.92361625  0.12090162    -0.61300
N465        N  0.42451196  0.93615027  0.49137109    -0.05200
N466        N  0.41505454  0.91648576  0.46555839    -0.58000
N467        N  0.45624811  0.93872851  0.48265269    -0.06600
N468        N  0.46890699  0.92086103  0.45074286    -0.60900
N469        N  0.42481748  0.93915166  0.09561598    -0.05500
N470        N  0.41588019  0.91936147  0.13517415    -0.58000
Mn471      Mn  0.48140264  0.96861837  0.02025533     1.20200
Mn472      Mn  0.39432841  0.96172176  0.04395577     1.10100
Cl473      Cl  0.43808711  0.51208136  0.01366305    -0.86000
C474        C  0.44410276  0.91000346  0.15107700     0.96300
C475        C  0.44294627  0.90717792  0.44002004     0.96100
C476        C  0.42356207  0.84304643  0.36977502    -0.20400
C477        C  0.45452772  0.82947659  0.35813077    -0.06900
C478        C  0.48164058  0.84307367  0.37000881     0.13900
C479        C  0.47692022  0.86877261  0.39558702    -0.20400
C480        C  0.44576349  0.88148389  0.40980694    -0.06900
C481        C  0.41871345  0.86893616  0.39538186     0.13900
C482        C  0.38471774  0.88243055  0.40642372    -0.23800
H483        H  0.40295121  0.83268652  0.35991027     0.15200
H484        H  0.49798131  0.87850911  0.40516300     0.15200
C485        C  0.51595890  0.83122806  0.35609075    -0.23700
H486        H  0.36720716  0.87075892  0.39001522     0.05500
H487        H  0.38407516  0.90862581  0.39275072     0.08700
H488        H  0.37636460  0.87822415  0.44489275     0.08700
H489        H  0.53046745  0.85137061  0.33461903     0.08700
H490        H  0.51757482  0.81138848  0.33506299     0.08700
H491        H  0.52694879  0.82252125  0.38807762     0.05400
C492        C  0.47730453  0.84875406  0.24438457    -0.20400
C493        C  0.45237585  0.82643334  0.25645405    -0.06900
C494        C  0.42361266  0.83289743  0.23700745     0.13900
C495        C  0.42136614  0.86054674  0.20330638    -0.20400
C496        C  0.44700688  0.88236077  0.18936930    -0.06900
C497        C  0.47487355  0.87685978  0.21178546     0.13900
C498        C  0.50170733  0.90081741  0.20305024    -0.23800
H499        H  0.49884898  0.84402066  0.26078077     0.15200
H500        H  0.39956024  0.86486148  0.18741139     0.15200
C501        C  0.39533287  0.81075048  0.25226483    -0.23700
H502        H  0.51994405  0.89375703  0.22679226     0.05500
H503        H  0.49144211  0.92485128  0.20939134     0.08700
H504        H  0.51469385  0.90237236  0.16653895     0.08700
H505        H  0.38742645  0.80900211  0.29071573     0.08700
H506        H  0.40235750  0.78637720  0.24377382     0.08700
H507        H  0.37434750  0.81964414  0.23446391     0.05400
C508        C  0.48036580  0.65214442  0.32425696    -0.20400
C509        C  0.44915898  0.64114526  0.34478023    -0.06900
C510        C  0.42195340  0.65594998  0.32560475     0.13900
C511        C  0.42651656  0.68268421  0.28969069    -0.20400
C512        C  0.45743486  0.69445784  0.27135382    -0.06900
C513        C  0.48483560  0.67814972  0.28728911     0.13900
C514        C  0.98188239  0.70412811  0.28230253    -0.23800
H515        H  0.50157537  0.64069751  0.33736989     0.15200
H516        H  0.40583091  0.69469877  0.27576126     0.15200
C517        C  0.38813656  0.64348803  0.34151605    -0.23700
H518        H  0.00050985  0.68700765  0.26810341     0.05500
H519        H  0.99049126  0.71367016  0.31126905     0.08700
H520        H  0.51973858  0.70924634  0.23834844     0.08700
H521        H  0.37958799  0.64661561  0.37851338     0.08700
H522        H  0.38798264  0.61766484  0.33782403     0.08700
H523        H  0.37053834  0.65657965  0.32011837     0.05400
C524        C  0.42471759  0.66019967  0.12980851    -0.20400
C525        C  0.45117040  0.63849519  0.12271050    -0.06900
C526        C  0.47977229  0.64337489  0.14088664     0.13900
C527        C  0.48153901  0.67006659  0.16368800    -0.20400
C528        C  0.45563105  0.69220580  0.16878941    -0.06900
C529        C  0.42671698  0.68703265  0.15230251     0.13900
C530        C  0.39790912  0.70979776  0.15854046    -0.23800
H531        H  0.40257292  0.65665771  0.11677630     0.15200
H532        H  0.50355182  0.67412977  0.17661355     0.15200
C533        C  0.50843689  0.62036281  0.13756709    -0.23700
H534        H  0.37695454  0.70191241  0.14458571     0.05500
H535        H  0.40441420  0.73424498  0.13964476     0.08700
H536        H  0.39018412  0.71098028  0.19641089     0.08700
H537        H  0.99398486  0.62334349  0.12203839     0.08700
H538        H  0.50020668  0.59583458  0.15355686     0.08700
H539        H  0.99622409  0.62895266  0.18079826     0.05400
C540        C  0.27030917  0.55863788  0.35780044    -0.20400
C541        C  0.25722052  0.52995355  0.35167213    -0.06900
C542        C  0.27145712  0.50024355  0.36845063     0.13900
C543        C  0.29795579  0.49986531  0.39247337    -0.20400
C544        C  0.31068654  0.52853615  0.40032357    -0.06900
C545        C  0.29710657  0.55846613  0.38129327     0.13900
C546        C  0.31014082  0.59040638  0.38559023    -0.23800
H547        H  0.25909807  0.58134360  0.34463786     0.15200
H548        H  0.29643658  0.94411120  0.45330378     0.15200
C549        C  0.24558680  0.92678495  0.41838719    -0.23700
H550        H  0.29711091  0.61096388  0.36712297     0.05500
H551        H  0.33610047  0.59173444  0.36959379     0.08700
H552        H  0.30722831  0.59342676  0.42305965     0.08700
H553        H  0.24555345  0.91575728  0.38647876     0.08700
H554        H  0.23223214  0.46718725  0.37894294     0.08700
H555        H  0.25791874  0.90946892  0.44314021     0.05400
C556        C  0.27441172  0.55123181  0.23859263    -0.20400
C557        C  0.25219625  0.52617871  0.25021887    -0.06900
C558        C  0.25786070  0.49916035  0.22666651     0.13900
C559        C  0.28522212  0.49828223  0.19160318    -0.20400
C560        C  0.30738602  0.52362117  0.17940111    -0.06900
C561        C  0.30192070  0.55034008  0.20391868     0.13900
C562        C  0.32517492  0.57774933  0.19484765    -0.23800
H563        H  0.26991762  0.57188011  0.25678854     0.15200
H564        H  0.28904723  0.47760401  0.17343274     0.15200
C565        C  0.23556614  0.47096127  0.23761889    -0.23700
H566        H  0.31809765  0.59528103  0.21953770     0.05500
H567        H  0.28837966  0.06263332  0.14215981     0.08500
H568        H  0.34993173  0.56828984  0.19938528     0.08700
H569        H  0.21551808  0.47332942  0.26686740     0.08700
H570        H  0.24956840  0.44852722  0.24776962     0.08700
H571        H  0.22486615  0.46864250  0.20600489     0.05400
C572        C  0.07193514  0.54711672  0.32019160    -0.20400
C573        C  0.06632771  0.51775464  0.35066785    -0.06900
C574        C  0.07040667  0.97771091  0.32104455     0.13900
C575        C  0.09783875  0.97512891  0.28692103    -0.20400
C576        C  0.11919032  0.52419758  0.27518665    -0.06900
C577        C  0.09818191  0.55072081  0.28310946     0.13900
C578        C  0.10456612  0.58337940  0.25407463    -0.23800
H579        H  0.05590096  0.56764612  0.32568248     0.15200
H580        H  0.10110907  0.95442362  0.26879912     0.15200
C581        C  0.04521301  0.95205246  0.32956250    -0.23700
H582        H  0.08697657  0.60195678  0.26659772     0.05500
H583        H  0.10248411  0.58272081  0.21709062     0.08700
H584        H  0.12933944  0.59087910  0.25607163     0.08700
H585        H  0.02103953  0.96334136  0.32549706     0.08700
H586        H  0.04437745  0.93797553  0.36524427     0.08700
H587        H  0.05075019  0.93475542  0.30423445     0.05400
C588        C  0.06943243  0.49725499  0.15515211    -0.20400
C589        C  0.06002100  0.52427358  0.12475628    -0.06900
C590        C  0.07763884  0.55310735  0.11865745     0.13900
C591        C  0.10453265  0.55350142  0.14146335    -0.20400
C592        C  0.11406517  0.52650487  0.17127489    -0.06900
C593        C  0.10934176  0.96774665  0.15668729     0.13900
C594        C  0.12527511  0.93471995  0.16317912    -0.23800
H595        H  0.07555056  0.95176886  0.11805174     0.15200
H596        H  0.11857322  0.57517881  0.13572895     0.15200
C597        C  0.06933103  0.58355274  0.08738092    -0.23700
H598        H  0.13573663  0.92825436  0.12838337     0.05500
H599        H  0.08715691  0.45995080  0.23707025     0.08700
H600        H  0.14474914  0.93283653  0.18506562     0.08700
H601        H  0.04456095  0.59229377  0.10039968     0.08700
H602        H  0.05731721  0.07140383  0.11056777     0.08700
H603        H  0.08615654  0.60326727  0.08690263     0.05400
N604        N  0.14988142  0.99395541  0.74179476    -0.03500
C605        C  0.14926560  0.99200732  0.69623945    -0.00900
C606        C  0.17403365  0.53321949  0.66486479    -0.23800
C607        C  0.19534500  0.53547473  0.69524139    -0.24000
C608        C  0.17827405  0.52884268  0.74052753    -0.01000
H609        H  0.17925734  0.53767636  0.62689475     0.12700
H610        H  0.22020693  0.54258178  0.68439225     0.12800
N611        N  0.22508487  0.52534688  0.78756916    -0.03500
C612        C  0.22734829  0.52674549  0.83284358    -0.00900
C613        C  0.19713291  0.53016086  0.85865055    -0.23800
C614        C  0.17524507  0.53111246  0.82815076    -0.24000
C615        C  0.19277409  0.52820782  0.78425743    -0.01000
H616        H  0.19164351  0.53222488  0.89555780     0.12700
H617        H  0.14945788  0.53461919  0.83794113     0.12800
N618        N  0.46057542  0.72214221  0.73571784    -0.03500
C619        C  0.46027974  0.72133527  0.68969919    -0.00900
C620        C  0.46440012  0.75177732  0.66419841    -0.23800
C621        C  0.46675393  0.77212043  0.69588045    -0.24000
C622        C  0.46341271  0.75365504  0.74027675    -0.01000
H623        H  0.46556075  0.75846456  0.62665300     0.12700
H624        H  0.47062685  0.79769911  0.68639947     0.12800
N625        N  0.45560022  0.79836922  0.79152823    -0.03500
C626        C  0.45679440  0.79974317  0.83712440    -0.00900
C627        C  0.46272945  0.76966211  0.86087647    -0.23800
C628        C  0.46549656  0.74883338  0.82861037    -0.24000
C629        C  0.46125194  0.76690490  0.78559254    -0.01000
H630        H  0.46543824  0.76352819  0.89744504     0.12700
H631        H  0.47089470  0.72374130  0.83681572     0.12800
N632        N  0.42872981  0.58274924  0.55529992    -0.06200
N633        N  0.41990965  0.60299385  0.58555010    -0.58300
N634        N  0.45962773  0.58056846  0.94181774    -0.05900
N635        N  0.47230694  0.59876850  0.90250134    -0.60400
N636        N  0.42785041  0.58426311  0.94904502    -0.05400
N637        N  0.41842706  0.60514731  0.91463596    -0.58300
N638        N  0.46052618  0.57906135  0.54777525    -0.05100
N639        N  0.47377846  0.59665830  0.57291765    -0.60800
C640        C  0.44825461  0.61133224  0.59682736     0.96000
C641        C  0.44636503  0.61389729  0.88544869     0.95800
N642        N  0.00780090  0.99343804  0.94821844    -0.06400
N643        N  0.02621984  0.98093581  0.91418607    -0.58900
N644        N  0.00212519  0.53193606  0.54956043    -0.04500
N645        N  0.01907138  0.54481329  0.57571149    -0.60100
N646        N  0.00794307  0.99257535  0.55351563    -0.06400
N647        N  0.02579088  0.97952137  0.58530301    -0.59100
N648        N  0.00260995  0.53137321  0.94269533    -0.04100
N649        N  0.02222044  0.54254965  0.90362282    -0.60200
Mn650      Mn  0.48543392  0.55051929  0.99366952     1.18400
C651        C  0.03674592  0.51576027  0.88819491     0.98100
C652        C  0.03323605  0.51938828  0.59987495     0.98800
N653        N  0.36907752  0.53596074  0.97364087    -0.06400
N654        N  0.35110432  0.54897464  0.94191028    -0.62700
N655        N  0.36566855  0.98860015  0.59575527    -0.05200
N656        N  0.34802388  0.97699874  0.63619211    -0.63400
N657        N  0.36947996  0.53462370  0.57933972    -0.05900
N658        N  0.35037293  0.54682099  0.61324596    -0.63000
N659        N  0.36482464  0.98520103  0.99174952    -0.04800
N660        N  0.34670764  0.97132406  0.96806698    -0.63700
Mn661      Mn  0.39811845  0.56063231  0.51454215     1.10700
C662        C  0.33758012  0.52345429  0.93003378     0.99300
C663        C  0.33596893  0.52088252  0.64133112     0.99400
N664        N  0.45668365  0.94147843  0.58738191    -0.05900
N665        N  0.46979908  0.92346755  0.62122066    -0.61300
N666        N  0.42430809  0.93638457  0.99120217    -0.05200
N667        N  0.41479650  0.91676226  0.96538838    -0.58000
N668        N  0.45604392  0.93894159  0.98242105    -0.06600
N669        N  0.46865413  0.92109386  0.95046333    -0.60900
N670        N  0.42494465  0.93897454  0.59581030    -0.05500
N671        N  0.41597041  0.91922782  0.63539267    -0.58000
Mn672      Mn  0.48156414  0.96844381  0.52052611     1.20200
Mn673      Mn  0.39448384  0.96151240  0.54410915     1.10100
Cl674      Cl  0.43791549  0.51251218  0.51317882    -0.86000
C675        C  0.44416802  0.90987887  0.65137078     0.96300
C676        C  0.44265250  0.90745806  0.93978103     0.96100
C677        C  0.42298171  0.84332040  0.86985197    -0.20400
C678        C  0.45384503  0.82943945  0.85861258    -0.06900
C679        C  0.48102839  0.84283608  0.87059942     0.13900
C680        C  0.47645644  0.86866984  0.89591133    -0.20400
C681        C  0.44537943  0.88169095  0.90974482    -0.06900
C682        C  0.41828256  0.86934638  0.89517480     0.13900
C683        C  0.38439717  0.88321543  0.90573885    -0.23800
H684        H  0.40232561  0.83311173  0.85988096     0.15200
H685        H  0.49755302  0.87825187  0.90561458     0.15200
C686        C  0.51525983  0.83061187  0.85710699    -0.23700
H687        H  0.36686826  0.87169841  0.88916528     0.05500
H688        H  0.38407892  0.90939693  0.89191048     0.08700
H689        H  0.37581705  0.87915657  0.94415269     0.08700
H690        H  0.53002843  0.85055131  0.83558272     0.08700
H691        H  0.51675624  0.81067027  0.83628158     0.08700
H692        H  0.52604618  0.82190979  0.88927585     0.05400
C693        C  0.47721126  0.84850849  0.74473670    -0.20400
C694        C  0.45214423  0.82634542  0.75691063    -0.06900
C695        C  0.42336595  0.83297480  0.73755371     0.13900
C696        C  0.42122247  0.86061698  0.70382289    -0.20400
C697        C  0.44700303  0.88225570  0.68972136    -0.06900
C698        C  0.47490908  0.87659614  0.71204068     0.13900
C699        C  0.50193043  0.90035736  0.70307945    -0.23800
H700        H  0.49875715  0.84365969  0.76111393     0.15200
H701        H  0.39938464  0.86505452  0.68802324     0.15200
C702        C  0.39496404  0.81099215  0.75293702    -0.23700
H703        H  0.52019734  0.89319866  0.72674513     0.05500
H704        H  0.49187036  0.92447370  0.70934706     0.08700
H705        H  0.51482825  0.90177112  0.66653686     0.08700
H706        H  0.38711905  0.80929309  0.79139243     0.08700
H707        H  0.40184761  0.78658250  0.74447169     0.08700
H708        H  0.37398152  0.81999256  0.73519270     0.05400
C709        C  0.48037525  0.65213426  0.82481111    -0.20400
C710        C  0.44923108  0.64060901  0.84456751    -0.06900
C711        C  0.42208988  0.65504637  0.82485786     0.13900
C712        C  0.42657552  0.68195612  0.78922762    -0.20400
C713        C  0.45738994  0.69426502  0.77170135    -0.06900
C714        C  0.48480146  0.67830256  0.78809599     0.13900
C715        C  0.98020623  0.70509888  0.78165630    -0.23800
H716        H  0.50155951  0.64095775  0.83831034     0.15200
H717        H  0.40591922  0.69365794  0.77483976     0.15200
C718        C  0.38846683  0.64194123  0.83981855    -0.23700
H719        H  0.99891920  0.68813353  0.76724951     0.05500
H720        H  0.98882001  0.71463148  0.81062709     0.08700
H721        H  0.51962519  0.70991491  0.73987912     0.08700
H722        H  0.37933256  0.64482288  0.87676123     0.08700
H723        H  0.38897802  0.61613356  0.83585407     0.08700
H724        H  0.37096797  0.65475011  0.81799841     0.05400
C725        C  0.42508967  0.66042170  0.62961989    -0.20400
C726        C  0.45119210  0.63817644  0.62375474    -0.06900
C727        C  0.47944104  0.64252935  0.64304899     0.13900
C728        C  0.48138327  0.66940188  0.66542279    -0.20400
C729        C  0.45588792  0.69212799  0.66916205    -0.06900
C730        C  0.42719330  0.68734666  0.65185669     0.13900
C731        C  0.39868297  0.71056741  0.65708698    -0.23800
H732        H  0.40316181  0.65721627  0.61583599     0.15200
H733        H  0.50314224  0.67307649  0.67915871     0.15200
C734        C  0.50746533  0.61870476  0.64150417    -0.23700
H735        H  0.37780845  0.70287545  0.64275326     0.05500
H736        H  0.40567015  0.73483346  0.63796469     0.08700
H737        H  0.39061350  0.71208047  0.69479754     0.08700
H738        H  0.99362070  0.62619988  0.61961728     0.08700
H739        H  0.49839177  0.59447186  0.65761514     0.08700
H740        H  0.99658889  0.63186383  0.67810877     0.05400
C741        C  0.27203025  0.55438228  0.85504219    -0.20400
C742        C  0.25775445  0.52545537  0.85267084    -0.06900
C743        C  0.27087122  0.49606202  0.87276238     0.13900
C744        C  0.29747833  0.49631711  0.89633530    -0.20400
C745        C  0.31133711  0.52534989  0.90058918    -0.06900
C746        C  0.29892475  0.55480999  0.87814364     0.13900
C747        C  0.31344619  0.58684510  0.87818396    -0.23800
H748        H  0.26158452  0.57685210  0.83949708     0.15200
H749        H  0.29633784  0.94421606  0.95315251     0.15200
C750        C  0.24554838  0.92679200  0.91819850    -0.23700
H751        H  0.30145791  0.60685441  0.85699084     0.05500
H752        H  0.33950017  0.58630558  0.86271806     0.08700
H753        H  0.31057107  0.59230812  0.91451989     0.08700
H754        H  0.24556266  0.91577092  0.88627226     0.08700
H755        H  0.23052189  0.46407469  0.88728438     0.08700
H756        H  0.25790217  0.90949778  0.94295077     0.05400
C757        C  0.27340226  0.54990454  0.73811308    -0.20400
C758        C  0.25264087  0.52369787  0.75095987    -0.06900
C759        C  0.25970637  0.49631587  0.72851839     0.13900
C760        C  0.28704977  0.49613953  0.69334896    -0.20400
C761        C  0.30781653  0.52259125  0.67986795    -0.06900
C762        C  0.30091135  0.54976336  0.70325579     0.13900
C763        C  0.32252769  0.57852230  0.69270877    -0.23800
H764        H  0.26773177  0.57084580  0.75543307     0.15200
H765        H  0.29192308  0.47510579  0.67608311     0.15200
C766        C  0.23882201  0.46705835  0.74060002    -0.23700
H767        H  0.31440355  0.59640286  0.71653879     0.05500
H768        H  0.28863998  0.06258883  0.64231584     0.08500
H769        H  0.34772564  0.57069404  0.69732747     0.08700
H770        H  0.21848762  0.46911705  0.76956914     0.08700
H771        H  0.25380949  0.44551000  0.75159825     0.08700
H772        H  0.22851093  0.46337286  0.70923622     0.05400
C773        C  0.07401617  0.54629352  0.82194656    -0.20400
C774        C  0.06485329  0.51634124  0.84884275    -0.06900
C775        C  0.07044869  0.97734504  0.82088122     0.13900
C776        C  0.09783434  0.97490312  0.78662112    -0.20400
C777        C  0.11911877  0.52129739  0.77550725    -0.06900
C778        C  0.10095457  0.54908265  0.78589972     0.13900
C779        C  0.11106320  0.58190133  0.76035559    -0.23800
H780        H  0.06037023  0.56788104  0.82958310     0.15200
H781        H  0.10111749  0.95425668  0.76837582     0.15200
C782        C  0.04531164  0.95163750  0.82936847    -0.23700
H783        H  0.09491746  0.60128096  0.77362151     0.05500
H784        H  0.11016868  0.58348767  0.72248201     0.08700
H785        H  0.13618342  0.58634535  0.76514943     0.08700
H786        H  0.02110388  0.96288779  0.82543370     0.08700
H787        H  0.04455455  0.93750135  0.86499888     0.08700
H788        H  0.05084779  0.93440692  0.80394324     0.05400
C789        C  0.07155820  0.49391667  0.65259308    -0.20400
C790        C  0.05998860  0.52211423  0.62685342    -0.06900
C791        C  0.07558044  0.55163120  0.62536872     0.13900
C792        C  0.10274510  0.55165243  0.64772734    -0.20400
C793        C  0.11443411  0.52347602  0.67258370    -0.06900
C794        C  0.10914538  0.96793932  0.65648657     0.13900
C795        C  0.12482358  0.93480284  0.66318681    -0.23800
H796        H  0.07515682  0.95210965  0.61803630     0.15200
H797        H  0.11546975  0.57385132  0.64502646     0.15200
C798        C  0.06471996  0.58332755  0.59970767    -0.23700
H799        H  0.13516089  0.92816151  0.62845260     0.05500
H800        H  0.09242645  0.45205848  0.72790129     0.08700
H801        H  0.14435136  0.93284677  0.68499067     0.08700
H802        H  0.03932273  0.58896992  0.61452969     0.08700
H803        H  0.05790597  0.07190248  0.60960123     0.08700
H804        H  0.07969070  0.60360021  0.60328893     0.05400
N805        N  0.64968669  0.49136249  0.24115034    -0.03500
C806        C  0.64932387  0.48633754  0.19665390    -0.00900
C807        C  0.67382052  0.03707057  0.16542389    -0.23800
C808        C  0.69526893  0.03800149  0.19605979    -0.24000
C809        C  0.67819304  0.03066122  0.24119237    -0.01000
H810        H  0.67917143  0.04188956  0.12747694     0.12700
H811        H  0.72033651  0.04458340  0.18558880     0.12800
N812        N  0.72519568  0.02484692  0.28854051    -0.03500
C813        C  0.72745874  0.02657377  0.33380879    -0.00900
C814        C  0.69736392  0.03156318  0.35907392    -0.23800
C815        C  0.67551352  0.03302669  0.32845594    -0.24000
C816        C  0.69290096  0.02892492  0.28499119    -0.01000
H817        H  0.69199856  0.03473868  0.39557771     0.12700
H818        H  0.64993082  0.03814815  0.33752210     0.12800
N819        N  0.95211343  0.22512805  0.23564338    -0.03500
C820        C  0.95252963  0.22413821  0.18955420    -0.00900
C821        C  0.95770269  0.25424017  0.16357630    -0.23800
C822        C  0.96020953  0.27467766  0.19500223    -0.24000
C823        C  0.95588380  0.25649777  0.23971427    -0.01000
H824        H  0.96006936  0.26055545  0.12586079     0.12700
H825        H  0.96541495  0.29983657  0.18490128     0.12800
N826        N  0.95111010  0.30147888  0.28982146    -0.03500
C827        C  0.95292372  0.30311710  0.33514886    -0.00900
C828        C  0.95662765  0.27275046  0.35973318    -0.23800
C829        C  0.95779306  0.25165092  0.32813318    -0.24000
C830        C  0.95466880  0.26977406  0.28474437    -0.01000
H831        H  0.95888857  0.26659781  0.39647322     0.12700
H832        H  0.96141212  0.22617767  0.33707188     0.12800
N833        N  0.92765796  0.08435643  0.05482094    -0.06200
N834        N  0.91822320  0.10485614  0.08442377    -0.58300
N835        N  0.95847411  0.08402469  0.44158072    -0.05900
N836        N  0.97011728  0.10315287  0.40248639    -0.60400
N837        N  0.92660205  0.08651173  0.44955046    -0.05400
N838        N  0.91609271  0.10726324  0.41600764    -0.58300
N839        N  0.95952732  0.08188144  0.04678767    -0.05100
N840        N  0.97225451  0.10054595  0.07088397    -0.60800
C841        C  0.94631254  0.11461725  0.09466142     0.96000
C842        C  0.94336619  0.11746669  0.38652411     0.95800
N843        N  0.50579839  0.49029627  0.44680066    -0.06400
N844        N  0.52399110  0.47772963  0.41258521    -0.58900
N845        N  0.50138769  0.03153458  0.04852238    -0.04500
N846        N  0.51938594  0.04547492  0.07227709    -0.60100
N847        N  0.50755180  0.48771029  0.05265989    -0.06400
N848        N  0.52647630  0.47421017  0.08282417    -0.59100
N849        N  0.50196147  0.02777767  0.44453303    -0.04100
N850        N  0.52151861  0.03927637  0.40567792    -0.60200
Mn851      Mn  0.98521619  0.05466142  0.49347922     1.18400
C852        C  0.53747554  0.01292884  0.39108657     0.98100
C853        C  0.53434301  0.02070715  0.09683329     0.98800
N854        N  0.86961385  0.03702425  0.47353041    -0.06400
N855        N  0.85139119  0.04996261  0.44216895    -0.62700
N856        N  0.86602367  0.49266868  0.09367006    -0.05200
N857        N  0.84792045  0.48080481  0.13362508    -0.63400
N858        N  0.86968575  0.03451064  0.07997441    -0.05900
N859        N  0.84998982  0.04646812  0.11356562    -0.63000
N860        N  0.86552306  0.49128680  0.48867191    -0.04800
N861        N  0.84726247  0.47854159  0.46402417    -0.63700
Mn862      Mn  0.89782578  0.06087656  0.01489537     1.10700
C863        C  0.83829210  0.02440331  0.42986906     0.99300
C864        C  0.83602896  0.02029945  0.14166622     0.99400
N865        N  0.95632708  0.44361811  0.08206267    -0.05900
N866        N  0.96956518  0.42421633  0.11440506    -0.61300
N867        N  0.92404343  0.44131514  0.48539013    -0.05200
N868        N  0.91432967  0.42238466  0.45872333    -0.58000
N869        N  0.95584015  0.44332341  0.47706394    -0.06600
N870        N  0.96831062  0.42579972  0.44465509    -0.60900
N871        N  0.92455437  0.44160912  0.09075330    -0.05500
N872        N  0.91564678  0.42078180  0.12919494    -0.58000
Mn873      Mn  0.98113353  0.47148026  0.01667671     1.20200
Mn874      Mn  0.89406496  0.46626235  0.04030382     1.10100
Cl875      Cl  0.93903733  0.01417850  0.01382651    -0.86000
C876        C  0.94396714  0.41025843  0.14402292     0.96300
C877        C  0.94216828  0.41301083  0.43309886     0.96100
C878        C  0.92319186  0.35214184  0.35790631    -0.20400
C879        C  0.95172828  0.33307756  0.35590101    -0.06900
C880        C  0.97762520  0.34159262  0.37672066     0.13900
C881        C  0.97373569  0.36799987  0.40087556    -0.20400
C882        C  0.94470697  0.38640860  0.40479805    -0.06900
C883        C  0.91923996  0.37868157  0.38216648     0.13900
C884        C  0.88798839  0.39824209  0.38292976    -0.23800
H885        H  0.90346823  0.34560375  0.34174799     0.15200
H886        H  0.99360227  0.37387701  0.41742269     0.15200
C887        C  0.00990681  0.32371571  0.37374651    -0.23700
H888        H  0.87180756  0.38985433  0.36095778     0.05500
H889        H  0.89327105  0.42391754  0.36903989     0.08700
H890        H  0.87456395  0.39604445  0.41928025     0.08700
H891        H  0.02958300  0.34088260  0.35828065     0.08700
H892        H  0.01185606  0.30460421  0.35143174     0.08700
H893        H  0.01397561  0.31260737  0.40952101     0.05400
C894        C  0.97583933  0.34850228  0.23839745    -0.20400
C895        C  0.94881518  0.32904291  0.25421558    -0.06900
C896        C  0.92004552  0.33673827  0.23517408     0.13900
C897        C  0.91917832  0.36352500  0.19978385    -0.20400
C898        C  0.94653323  0.38276921  0.18261071    -0.06900
C899        C  0.97530385  0.37509837  0.20259155     0.13900
C900        C  0.00551715  0.39469443  0.18711211    -0.23800
H901        H  0.99765835  0.34232382  0.25381361     0.15200
H902        H  0.89704009  0.36909768  0.18500134     0.15200
C903        C  0.89042361  0.31651760  0.25207450    -0.23700
H904        H  0.02480521  0.38601382  0.20846658     0.05500
H905        H  0.99983096  0.42026687  0.19097376     0.08700
H906        H  0.01555311  0.39283873  0.15005606     0.08700
H907        H  0.88281824  0.31595073  0.29035474     0.08700
H908        H  0.89577803  0.29154426  0.24502313     0.08700
H909        H  0.86972869  0.32619625  0.23411891     0.05400
C910        C  0.97507070  0.15497250  0.32206237    -0.20400
C911        C  0.94447432  0.14438523  0.34597114    -0.06900
C912        C  0.91619585  0.16018637  0.33092484     0.13900
C913        C  0.91947731  0.18646561  0.29412803    -0.20400
C914        C  0.94999915  0.19734514  0.27175457    -0.06900
C915        C  0.97815138  0.18108109  0.28519488     0.13900
C916        C  0.47827758  0.20014267  0.28004841    -0.23800
H917        H  0.99695127  0.14318255  0.33256703     0.15200
H918        H  0.89812908  0.19903908  0.28300095     0.15200
C919        C  0.88240348  0.14977804  0.35282017    -0.23700
H920        H  0.49658688  0.18301808  0.26512100     0.05500
H921        H  0.48737855  0.20923544  0.30899143     0.08700
H922        H  0.01159676  0.21258687  0.23422332     0.08700
H923        H  0.87768430  0.15307964  0.39024184     0.08700
H924        H  0.87962432  0.12417884  0.34968972     0.08700
H925        H  0.86358667  0.16413038  0.33515868     0.05400
C926        C  0.92032139  0.16110587  0.13087663    -0.20400
C927        C  0.94828938  0.14165566  0.12130366    -0.06900
C928        C  0.97719153  0.14886926  0.13682983     0.13900
C929        C  0.97747845  0.17534015  0.16042811    -0.20400
C930        C  0.94978788  0.19486244  0.16883468    -0.06900
C931        C  0.92087591  0.18773015  0.15416502     0.13900
C932        C  0.89063605  0.20833722  0.16279333    -0.23800
H933        H  0.89814265  0.15594213  0.11941534     0.15200
H934        H  0.99959596  0.18135710  0.17119681     0.15200
C935        C  0.00791082  0.12886868  0.12947216    -0.23700
H936        H  0.87002993  0.19934909  0.14929215     0.05500
H937        H  0.89524888  0.23342718  0.14493239     0.08700
H938        H  0.88343533  0.20834583  0.20106384     0.08700
H939        H  0.49100253  0.12345203  0.11629658     0.08700
H940        H  0.00270022  0.10347553  0.14490069     0.08700
H941        H  0.49366019  0.12765907  0.17542979     0.05400
C942        C  0.76908024  0.05494600  0.36165397    -0.20400
C943        C  0.75786185  0.02588171  0.35366516    -0.06900
C944        C  0.77378843  0.99673289  0.36867530     0.13900
C945        C  0.80060581  0.99730145  0.39181306    -0.20400
C946        C  0.81162105  0.02633306  0.40118535    -0.06900
C947        C  0.79578187  0.05571362  0.38500310     0.13900
C948        C  0.80597760  0.08801715  0.39275992    -0.23800
H949        H  0.75635134  0.07715225  0.35029993     0.15200
H950        H  0.79678917  0.45264239  0.45020608     0.15200
C951        C  0.74629149  0.43513357  0.41527708    -0.23700
H952        H  0.79098075  0.10809847  0.37703159     0.05500
H953        H  0.83154147  0.09217394  0.37608678     0.08700
H954        H  0.80316894  0.08898851  0.43092324     0.08700
H955        H  0.74650201  0.42406897  0.38335632     0.08700
H956        H  0.73620495  0.96186413  0.37963494     0.08700
H957        H  0.75864070  0.41791940  0.44013161     0.05400
C958        C  0.77516386  0.04798958  0.24138995    -0.20400
C959        C  0.75283303  0.02300932  0.25188167    -0.06900
C960        C  0.75860955  0.99651398  0.22721266     0.13900
C961        C  0.78585710  0.99631683  0.19175812    -0.20400
C962        C  0.80797543  0.02170019  0.18048850    -0.06900
C963        C  0.80270453  0.04762493  0.20657449     0.13900
C964        C  0.82634960  0.07459085  0.19916374    -0.23800
H965        H  0.77079366  0.06812552  0.26065042     0.15200
H966        H  0.78967053  0.97610779  0.17259165     0.15200
C967        C  0.73660299  0.96810964  0.23752827    -0.23700
H968        H  0.81953493  0.09135536  0.22504253     0.05500
H969        H  0.78976434  0.56666317  0.13976209     0.08500
H970        H  0.85098422  0.06454147  0.20324769     0.08700
H971        H  0.71667106  0.96990892  0.26713458     0.08700
H972        H  0.75087840  0.94570591  0.24685013     0.08700
H973        H  0.72575255  0.96617769  0.20589998     0.05400
C974        C  0.57301194  0.04514151  0.32443722    -0.20400
C975        C  0.56551985  0.01474375  0.35132197    -0.06900
C976        C  0.57189035  0.47219745  0.32328523     0.13900
C977        C  0.59930056  0.47029666  0.28880386    -0.20400
C978        C  0.61901157  0.02249392  0.27646775    -0.06900
C979        C  0.59939777  0.04929855  0.28754834     0.13900
C980        C  0.60724197  0.08261040  0.26170373    -0.23800
H981        H  0.55833765  0.06604842  0.33252068     0.15200
H982        H  0.60434567  0.44861105  0.27306168     0.15200
C983        C  0.54958008  0.44393805  0.33585558    -0.23700
H984        H  0.59033773  0.10114750  0.27587055     0.05500
H985        H  0.60538066  0.08394329  0.22415074     0.08700
H986        H  0.63228049  0.08853674  0.26499786     0.08700
H987        H  0.52444094  0.45211925  0.33141228     0.08700
H988        H  0.55020970  0.43224955  0.37255243     0.08700
H989        H  0.55692772  0.42527312  0.31306843     0.05400
C990        C  0.57290888  0.99638283  0.15018020    -0.20400
C991        C  0.56114204  0.02419755  0.12370238    -0.06900
C992        C  0.57639465  0.05393956  0.12187050     0.13900
C993        C  0.60275956  0.05474406  0.14584341    -0.20400
C994        C  0.61433526  0.02699183  0.17203534    -0.06900
C995        C  0.61012318  0.46204445  0.15508485     0.13900
C996        C  0.62581397  0.42894385  0.16209898    -0.23800
H997        H  0.57686120  0.44638695  0.11510308     0.15200
H998        H  0.61499776  0.07721650  0.14333692     0.15200
C999        C  0.56606132  0.08497340  0.09393314    -0.23700
H1000       H  0.63692815  0.42250587  0.12754077     0.05500
H1001       H  0.59359182  0.95484887  0.22594986     0.08700
H1002       H  0.64475649  0.42697024  0.18489875     0.08700
H1003       H  0.54052698  0.09108424  0.10744033     0.08700
H1004       H  0.56144460  0.56635368  0.10422551     0.08700
H1005       H  0.58099548  0.10550274  0.09662297     0.05400
N1006       N  0.64940568  0.49053408  0.74100137    -0.03500
C1007       C  0.64899268  0.48559915  0.69645766    -0.00900
C1008       C  0.67398325  0.03725892  0.66559850    -0.23800
C1009       C  0.69541618  0.03821800  0.69624571    -0.24000
C1010       C  0.67836656  0.03073832  0.74137219    -0.01000
H1011       H  0.67932163  0.04216482  0.62765466     0.12700
H1012       H  0.72045449  0.04490741  0.68579150     0.12800
N1013       N  0.72540835  0.02483016  0.78866601    -0.03500
C1014       C  0.72768657  0.02630600  0.83400626    -0.00900
C1015       C  0.69758666  0.03116028  0.85935836    -0.23800
C1016       C  0.67572030  0.03276819  0.82873386    -0.24000
C1017       C  0.69310126  0.02889641  0.78517312    -0.01000
H1018       H  0.69222412  0.03413056  0.89594419     0.12700
H1019       H  0.65012549  0.03779927  0.83788054     0.12800
N1020       N  0.95201462  0.22491132  0.73657685    -0.03500
C1021       C  0.95260426  0.22403796  0.69041841    -0.00900
C1022       C  0.95805848  0.25413665  0.66455820    -0.23800
C1023       C  0.96054142  0.27446689  0.69612475    -0.24000
C1024       C  0.95587578  0.25624073  0.74079597    -0.01000
H1025       H  0.96061154  0.26051618  0.62683469     0.12700
H1026       H  0.96591635  0.29959767  0.68616025     0.12800
N1027       N  0.95069107  0.30121769  0.79094156    -0.03500
C1028       C  0.95186696  0.30281022  0.83647094    -0.00900
C1029       C  0.95515501  0.27241761  0.86119859    -0.23800
C1030       C  0.95667914  0.25133070  0.82951128    -0.24000
C1031       C  0.95422494  0.26949694  0.78591798    -0.01000
H1032       H  0.95688312  0.26623688  0.89811526     0.12700
H1033       H  0.96001463  0.22582458  0.83856593     0.12800
N1034       N  0.92747635  0.08498284  0.55454581    -0.06200
N1035       N  0.91800696  0.10536924  0.58430747    -0.58300
N1036       N  0.95852645  0.08332251  0.94182706    -0.05900
N1037       N  0.97014467  0.10246550  0.90273612    -0.60400
N1038       N  0.92665574  0.08579994  0.94985439    -0.05400
N1039       N  0.91612246  0.10657095  0.91634197    -0.58300
N1040       N  0.95934777  0.08248576  0.54660235    -0.05100
N1041       N  0.97204426  0.10101312  0.57092538    -0.60800
C1042       C  0.94607838  0.11501725  0.59474536     0.96000
C1043       C  0.94338342  0.11678265  0.88681439     0.95800
N1044       N  0.50607592  0.48970727  0.94746479    -0.06400
N1045       N  0.52428930  0.47705213  0.91333494    -0.58900
N1046       N  0.50151022  0.03138656  0.54881674    -0.04500
N1047       N  0.51952255  0.04534784  0.57252706    -0.60100
N1048       N  0.50728955  0.48768054  0.55208796    -0.06400
N1049       N  0.52614281  0.47396300  0.58222508    -0.59100
N1050       N  0.50182581  0.02792954  0.94422702    -0.04100
N1051       N  0.52143200  0.03940452  0.90540505    -0.60200
Mn1052     Mn  0.98531983  0.05400041  0.99367132     1.18400
C1053       C  0.53738957  0.01303987  0.89086069     0.98100
C1054       C  0.53451184  0.02059763  0.59706449     0.98800
N1055       N  0.86971484  0.03623674  0.97415560    -0.06400
N1056       N  0.85153834  0.04917970  0.94275330    -0.62700
N1057       N  0.86613030  0.49171118  0.59350253    -0.05200
N1058       N  0.84781066  0.47971896  0.63322303    -0.63400
N1059       N  0.86948786  0.03518725  0.57942935    -0.05900
N1060       N  0.84986523  0.04707803  0.61316302    -0.63000
N1061       N  0.86479841  0.49173638  0.98913587    -0.04800
N1062       N  0.84640011  0.47883173  0.96485173    -0.63700
Mn1063     Mn  0.89768635  0.06159132  0.51445554     1.10700
C1064       C  0.83834391  0.02364555  0.93055721     0.99300
C1065       C  0.83595390  0.02086014  0.64120794     0.99400
N1066       N  0.95655739  0.44270922  0.58211051    -0.05900
N1067       N  0.96965631  0.42342359  0.61472846    -0.61300
N1068       N  0.92328158  0.44162632  0.98591125    -0.05200
N1069       N  0.91341668  0.42248106  0.95966487    -0.58000
N1070       N  0.95508228  0.44355448  0.97738789    -0.06600
N1071       N  0.96740537  0.42578160  0.94522850    -0.60900
N1072       N  0.92478161  0.44071987  0.59056748    -0.05500
N1073       N  0.91572769  0.42000477  0.62908672    -0.58000
Mn1074     Mn  0.98161444  0.47090481  0.51709064     1.20200
Mn1075     Mn  0.89452034  0.46558868  0.53997495     1.10100
Cl1076     Cl  0.93890407  0.01487509  0.51343331    -0.86000
C1077       C  0.94396329  0.40954204  0.64423483     0.96300
C1078       C  0.94117336  0.41290173  0.93406231     0.96100
C1079       C  0.92199414  0.35172419  0.85941238    -0.20400
C1080       C  0.95058493  0.33274281  0.85727836    -0.06900
C1081       C  0.97648981  0.34129472  0.87803734     0.13900
C1082       C  0.97262329  0.36775030  0.90208531    -0.20400
C1083       C  0.94358142  0.38613764  0.90605360    -0.06900
C1084       C  0.91803635  0.37827790  0.88366343     0.13900
C1085       C  0.88670099  0.39770879  0.88467882    -0.23800
H1086       H  0.90225177  0.34511738  0.84332999     0.15200
H1087       H  0.99252638  0.37368707  0.91850801     0.15200
C1088       C  0.00875379  0.32338391  0.87513821    -0.23700
H1089       H  0.87042528  0.38919156  0.86295437     0.05500
H1090       H  0.89184417  0.42339345  0.87065442     0.08700
H1091       H  0.87344884  0.39552778  0.92112920     0.08700
H1092       H  0.02844210  0.34050133  0.85949913     0.08700
H1093       H  0.01064981  0.30415203  0.85303356     0.08700
H1094       H  0.01284535  0.31240611  0.91095623     0.05400
C1095       C  0.97536448  0.34847613  0.73989698    -0.20400
C1096       C  0.94846427  0.32878743  0.75529277    -0.06900
C1097       C  0.91986440  0.33622970  0.73572090     0.13900
C1098       C  0.91909461  0.36288230  0.70008813    -0.20400
C1099       C  0.94636899  0.38228088  0.68322723    -0.06900
C1100       C  0.97490496  0.37498467  0.70390605     0.13900
C1101       C  0.00491737  0.39492808  0.68900257    -0.23800
H1102       H  0.99703368  0.34254480  0.75576611     0.15200
H1103       H  0.89711017  0.36821361  0.68484460     0.15200
C1104       C  0.89030998  0.31587851  0.75233530    -0.23700
H1105       H  0.02397973  0.38658279  0.71091019     0.05500
H1106       H  0.99880842  0.42047647  0.69258725     0.08700
H1107       H  0.01543735  0.39304180  0.65212587     0.08700
H1108       H  0.88245853  0.31540314  0.79055552     0.08700
H1109       H  0.89585148  0.29089177  0.74546781     0.08700
H1110       H  0.86971783  0.32539644  0.73405094     0.05400
C1111       C  0.97507610  0.15479835  0.82301823    -0.20400
C1112       C  0.94448768  0.14380771  0.84638975    -0.06900
C1113       C  0.91620492  0.15930213  0.83092732     0.13900
C1114       C  0.91944679  0.18570640  0.79430399    -0.20400
C1115       C  0.94994409  0.19702593  0.77253478    -0.06900
C1116       C  0.97812526  0.18102542  0.78632589     0.13900
C1117       C  0.47804509  0.20066021  0.78012338    -0.23800
H1118       H  0.99696941  0.14322531  0.83380357     0.15200
H1119       H  0.89807911  0.19802639  0.78283905     0.15200
C1120       C  0.88245579  0.14840208  0.85217191    -0.23700
H1121       H  0.49644730  0.18358721  0.76527064     0.05500
H1122       H  0.48702432  0.20979399  0.80912975     0.08700
H1123       H  0.01153581  0.21284653  0.73579135     0.08700
H1124       H  0.87728204  0.15161583  0.88961569     0.08700
H1125       H  0.88014841  0.12275847  0.84885245     0.08700
H1126       H  0.86365185  0.16250958  0.83418036     0.05400
C1127       C  0.92031969  0.16178718  0.63044801    -0.20400
C1128       C  0.94805236  0.14189775  0.62164663    -0.06900
C1129       C  0.97675391  0.14851316  0.63818790     0.13900
C1130       C  0.97712335  0.17487569  0.66196740    -0.20400
C1131       C  0.94970443  0.19487768  0.66953149    -0.06900
C1132       C  0.92095781  0.18830952  0.65391146     0.13900
C1133       C  0.89097685  0.20938322  0.66177179    -0.23800
H1134       H  0.89828964  0.15705379  0.61822682     0.15200
H1135       H  0.99910741  0.18043032  0.67353347     0.15200
C1136       C  0.00713512  0.12792862  0.63180773    -0.23700
H1137       H  0.87045725  0.20076937  0.64765102     0.05500
H1138       H  0.89611899  0.23440607  0.64402497     0.08700
H1139       H  0.88335798  0.20943706  0.69996674     0.08700
H1140       H  0.49102904  0.12360588  0.61638554     0.08700
H1141       H  0.00125313  0.10263422  0.64698495     0.08700
H1142       H  0.49364504  0.12795869  0.67547868     0.05400
C1143       C  0.76915904  0.05446656  0.86245711    -0.20400
C1144       C  0.75809374  0.02550012  0.85389502    -0.06900
C1145       C  0.77410728  0.99631403  0.86852458     0.13900
C1146       C  0.80086495  0.99675357  0.89184384    -0.20400
C1147       C  0.81172329  0.02568528  0.90176770    -0.06900
C1148       C  0.79577350  0.05510433  0.88601565     0.13900
C1149       C  0.80570258  0.08731093  0.89454819    -0.23800
H1150       H  0.75635105  0.07669303  0.85143007     0.15200
H1151       H  0.79625394  0.45255048  0.95077943     0.15200
C1152       C  0.74624518  0.43446347  0.91535935    -0.23700
H1153       H  0.79056713  0.10742887  0.87922731     0.05500
H1154       H  0.83123624  0.09178225  0.87796413     0.08700
H1155       H  0.80284471  0.08787294  0.93282846     0.08700
H1156       H  0.74680260  0.42329584  0.88345025     0.08700
H1157       H  0.73665541  0.96136976  0.87874045     0.08700
H1158       H  0.75857832  0.41742953  0.94044799     0.05400
C1159       C  0.77532882  0.04814038  0.74154667    -0.20400
C1160       C  0.75302256  0.02313378  0.75193084    -0.06900
C1161       C  0.75875933  0.99676608  0.72700593     0.13900
C1162       C  0.78592076  0.99672362  0.69139854    -0.20400
C1163       C  0.80799402  0.02214178  0.68019576    -0.06900
C1164       C  0.80277887  0.04794055  0.70652724     0.13900
C1165       C  0.82638462  0.07493804  0.69914004    -0.23800
H1166       H  0.77100060  0.06816718  0.76102954     0.15200
H1167       H  0.78969650  0.97660587  0.67204857     0.15200
C1168       C  0.73679153  0.96833484  0.73719706    -0.23700
H1169       H  0.81961663  0.09160979  0.72516008     0.05500
H1170       H  0.78917785  0.56508378  0.63880699     0.08500
H1171       H  0.85105877  0.06491206  0.70301204     0.08700
H1172       H  0.71693377  0.96999023  0.76694875     0.08700
H1173       H  0.75112162  0.94591975  0.74623278     0.08700
H1174       H  0.72584298  0.96653640  0.70560608     0.05400
C1175       C  0.57314464  0.04521947  0.82442953    -0.20400
C1176       C  0.56552247  0.01482162  0.85122108    -0.06900
C1177       C  0.57148742  0.47172573  0.82308916     0.13900
C1178       C  0.59880364  0.46977173  0.78845693    -0.20400
C1179       C  0.61917957  0.02250548  0.77660435    -0.06900
C1180       C  0.59961130  0.04934275  0.78766224     0.13900
C1181       C  0.60757137  0.08264837  0.76189028    -0.23800
H1182       H  0.55850463  0.06615308  0.83248739     0.15200
H1183       H  0.60355213  0.44820186  0.77237653     0.15200
C1184       C  0.54878212  0.44378210  0.83524994    -0.23700
H1185       H  0.59067446  0.10121061  0.77600217     0.05500
H1186       H  0.60580594  0.08401767  0.72429847     0.08700
H1187       H  0.63259924  0.08850754  0.76533453     0.08700
H1188       H  0.52372227  0.45239607  0.83103531     0.08700
H1189       H  0.54935524  0.43174666  0.87179628     0.08700
H1190       H  0.55578566  0.42529344  0.81206851     0.05400
C1191       C  0.57314779  0.99632367  0.65033625    -0.20400
C1192       C  0.56132857  0.02412384  0.62389176    -0.06900
C1193       C  0.57654043  0.05388935  0.62206342     0.13900
C1194       C  0.60291263  0.05472924  0.64601484    -0.20400
C1195       C  0.61453685  0.02699044  0.67218150    -0.06900
C1196       C  0.61031241  0.46164363  0.65358836     0.13900
C1197       C  0.62656619  0.42875643  0.65919365    -0.23800
H1198       H  0.57750986  0.44639598  0.61253345     0.15200
H1199       H  0.61511369  0.07722137  0.64351703     0.15200
C1200       C  0.56615095  0.08491488  0.59416135    -0.23700
H1201       H  0.63806420  0.42326727  0.62425162     0.05500
H1202       H  0.59392382  0.95479901  0.72603883     0.08700
H1203       H  0.64527647  0.42648108  0.68239402     0.08700
H1204       H  0.54061040  0.09099063  0.60770060     0.08700
H1205       H  0.55966826  0.56572113  0.60723547     0.08700
H1206       H  0.58106091  0.10546356  0.59684628     0.05400
N1207       N  0.64634569  0.02613598  0.23873571    -0.03500
C1208       C  0.64416317  0.02951775  0.19237405    -0.00900
C1209       C  0.68022652  0.47986393  0.17498705    -0.23800
C1210       C  0.70032228  0.48006180  0.20774968    -0.24000
C1211       C  0.68111093  0.48699039  0.24859044    -0.01000
H1212       H  0.68728919  0.47481260  0.13953768     0.12700
H1213       H  0.72587865  0.47418787  0.20195503     0.12800
N1214       N  0.72399124  0.49158772  0.29993741    -0.03500
C1215       C  0.72404100  0.48901779  0.34673366    -0.00900
C1216       C  0.69322866  0.48301881  0.37100652    -0.23800
C1217       C  0.67369310  0.48110777  0.33811690    -0.24000
C1218       C  0.69292091  0.48688669  0.29428505    -0.01000
H1219       H  0.68566410  0.48017640  0.40861664     0.12700
H1220       H  0.64836657  0.47517506  0.34643890     0.12800
N1221       N  0.92033804  0.72337435  0.24605049    -0.03500
C1222       C  0.91906578  0.72010364  0.20105835    -0.00900
C1223       C  0.91902535  0.74977832  0.17333839    -0.23800
C1224       C  0.91977366  0.77225587  0.20229178    -0.24000
C1225       C  0.92019254  0.75573398  0.24749657    -0.01000
H1226       H  0.91875693  0.75464244  0.13592302     0.12700
H1227       H  0.91989690  0.79766935  0.19005367     0.12800
N1228       N  0.92351794  0.80347050  0.29105416    -0.03500
C1229       C  0.92301258  0.80698531  0.33633565    -0.00900
C1230       C  0.91843259  0.77777629  0.36510972    -0.23800
C1231       C  0.91631860  0.75532601  0.33636175    -0.24000
C1232       C  0.92004200  0.77142152  0.29037042    -0.01000
H1233       H  0.91654674  0.77328153  0.40295346     0.12700
H1234       H  0.91192804  0.73020190  0.34900199     0.12800
N1235       N  0.91261158  0.58081798  0.05917102    -0.06200
N1236       N  0.90039033  0.59767358  0.09254240    -0.58300
N1237       N  0.94379988  0.58238814  0.44643154    -0.05900
N1238       N  0.95288228  0.60340286  0.40823942    -0.60400
N1239       N  0.91197310  0.58058167  0.45500649    -0.05400
N1240       N  0.89894937  0.60032354  0.42270842    -0.58300
N1241       N  0.94437978  0.58290729  0.05031087    -0.05100
N1242       N  0.95434394  0.60119753  0.07769531    -0.60800
C1243       C  0.92666375  0.61010504  0.10424261     0.96000
C1244       C  0.92468050  0.61434534  0.39333734     0.95800
N1245       N  0.50563211  0.99626005  0.45374217    -0.06400
N1246       N  0.52772647  0.98591244  0.42125417    -0.58900
N1247       N  0.50994550  0.51923121  0.04593718    -0.04500
N1248       N  0.53044421  0.52770293  0.07137804    -0.60100
N1249       N  0.50487491  0.00003168  0.05775878    -0.06400
N1250       N  0.52541208  0.99205792  0.08788802    -0.59100
N1251       N  0.50903551  0.52171612  0.44022673    -0.04100
N1252       N  0.52963588  0.53095884  0.40134552    -0.60200
Mn1253     Mn  0.97401310  0.55761861  0.49737452     1.18400
C1254       C  0.53862800  0.50325090  0.38400858     0.98100
C1255       C  0.54043044  0.49947933  0.09468194     0.98800
N1256       N  0.86258854  0.52287957  0.48120787    -0.06400
N1257       N  0.84211184  0.53217440  0.45136286    -0.62700
N1258       N  0.86783264  0.00292210  0.08660180    -0.05200
N1259       N  0.84680333  0.99293862  0.12464137    -0.63400
N1260       N  0.86304745  0.52426126  0.08611973    -0.05900
N1261       N  0.84286505  0.53436617  0.12084247    -0.63000
N1262       N  0.86788624  0.00548102  0.48030657    -0.04800
N1263       N  0.84850963  0.99641238  0.45367905    -0.63700
Mn1264     Mn  0.88648888  0.55299372  0.02006821     1.10700
C1265       C  0.83291409  0.50423760  0.44051385     0.99300
C1266       C  0.83355450  0.50705598  0.15054634     0.99400
N1267       N  0.95145357  0.94221089  0.07732300    -0.05900
N1268       N  0.96185274  0.92106073  0.11054783    -0.61300
N1269       N  0.91857237  0.94799290  0.47899430    -0.05200
N1270       N  0.90579399  0.93136278  0.45226089    -0.58000
N1271       N  0.95038488  0.94513845  0.47126734    -0.06600
N1272       N  0.95974745  0.92637117  0.43911256    -0.60900
N1273       N  0.91961581  0.94485003  0.08518761    -0.05500
N1274       N  0.90783945  0.92549068  0.12390155    -0.58000
Mn1275     Mn  0.98011422  0.96731840  0.01266997     1.20200
Mn1276     Mn  0.89287419  0.97436835  0.03359083     1.10100
Cl1277     Cl  0.93383098  0.51223456  0.01803321    -0.86000
C1278       C  0.93445881  0.91080951  0.13972151     0.96300
C1279       C  0.93159274  0.91802008  0.42717066     0.96100
C1280       C  0.89821956  0.85571889  0.36634679    -0.20400
C1281       C  0.92635158  0.83774890  0.35340609    -0.06900
C1282       C  0.95656812  0.84802154  0.36048725     0.13900
C1283       C  0.95758954  0.87497907  0.38291984    -0.20400
C1284       C  0.92915528  0.89212130  0.39850355    -0.06900
C1285       C  0.89914219  0.88305300  0.38798640     0.13900
C1286       C  0.86778146  0.90162315  0.39927502    -0.23800
H1287       H  0.87511966  0.84769990  0.36089031     0.15200
H1288       H  0.98085596  0.88202203  0.38937485     0.15200
C1289       C  0.98809057  0.83072584  0.34572423    -0.23700
H1290       H  0.84760133  0.89229947  0.38517808     0.05500
H1291       H  0.87071506  0.92732167  0.38328088     0.08700
H1292       H  0.86039933  0.89949487  0.43783744     0.08700
H1293       H  0.00442410  0.84758020  0.32024650     0.08700
H1294       H  0.98486228  0.80959384  0.32887349     0.08700
H1295       H  0.99998612  0.82218084  0.37692237     0.05400
C1296       C  0.95703897  0.84131039  0.23226207    -0.20400
C1297       C  0.92631598  0.82987546  0.25274837    -0.06900
C1298       C  0.89852378  0.84512513  0.23684606     0.13900
C1299       C  0.90208778  0.87161426  0.20059611    -0.20400
C1300       C  0.93290578  0.88316681  0.17918792    -0.06900
C1301       C  0.96086725  0.86761487  0.19553787     0.13900
C1302       C  0.99484816  0.87825966  0.17506151    -0.23800
H1303       H  0.97812910  0.82928295  0.24499386     0.15200
H1304       H  0.88051474  0.88298870  0.18849298     0.15200
C1305       C  0.86522617  0.83254008  0.25699022    -0.23700
H1306       H  0.01331734  0.86383583  0.19339059     0.05500
H1307       H  0.99746279  0.90384995  0.17850267     0.08700
H1308       H  0.00029162  0.87512631  0.13759309     0.08700
H1309       H  0.86011016  0.83316880  0.29518962     0.08700
H1310       H  0.86378798  0.80730965  0.25103964     0.08700
H1311       H  0.84602127  0.84705033  0.24043970     0.05400
C1312       C  0.95071601  0.66002620  0.33630120    -0.20400
C1313       C  0.92248729  0.64237567  0.35510493    -0.06900
C1314       C  0.89336505  0.65210154  0.33691212     0.13900
C1315       C  0.89340678  0.67900183  0.30130050    -0.20400
C1316       C  0.92147939  0.69667646  0.28351960    -0.06900
C1317       C  0.95057512  0.68686940  0.30082238     0.13900
C1318       C  0.51893007  0.68848610  0.26718142    -0.23800
H1319       H  0.97324933  0.65298036  0.34936325     0.15200
H1320       H  0.87138256  0.68649569  0.28706107     0.15200
C1321       C  0.86219747  0.63424296  0.35386084    -0.23700
H1322       H  0.53296142  0.66814051  0.25305678     0.05500
H1323       H  0.53083842  0.69547377  0.29522308     0.08700
H1324       H  0.97941900  0.72452561  0.25382994     0.08700
H1325       H  0.85362001  0.63595205  0.39137952     0.08700
H1326       H  0.86611169  0.60862708  0.34913863     0.08700
H1327       H  0.84255748  0.64442084  0.33401167     0.05400
C1328       C  0.89575421  0.65499266  0.13798568    -0.20400
C1329       C  0.92435285  0.63592652  0.13399397    -0.06900
C1330       C  0.94978697  0.64247294  0.15764026     0.13900
C1331       C  0.94666018  0.66910983  0.18166442    -0.20400
C1332       C  0.91899143  0.68932952  0.18262519    -0.06900
C1333       C  0.89281064  0.68161684  0.16175111     0.13900
C1334       C  0.86164573  0.70137770  0.16468034    -0.23800
H1335       H  0.87584215  0.64975961  0.12099171     0.15200
H1336       H  0.96665793  0.67502754  0.19828094     0.15200
C1337       C  0.98005274  0.62150432  0.15800100    -0.23700
H1338       H  0.84318871  0.69112054  0.14825047     0.05500
H1339       H  0.86613097  0.72630083  0.14622559     0.08700
H1340       H  0.85141021  0.70201759  0.20205321     0.08700
H1341       H  0.51964284  0.62075191  0.10036846     0.08700
H1342       H  0.97348270  0.59608796  0.17153835     0.08700
H1343       H  0.52754390  0.62666868  0.15663449     0.05400
C1344       C  0.76953508  0.52114028  0.35831747    -0.20400
C1345       C  0.75279703  0.49212093  0.36921922    -0.06900
C1346       C  0.76287798  0.46713054  0.40266157     0.13900
C1347       C  0.78931102  0.47190010  0.42446681    -0.20400
C1348       C  0.80571151  0.50117952  0.41463432    -0.06900
C1349       C  0.79576053  0.52612223  0.38077584     0.13900
C1350       C  0.81276707  0.55781324  0.36745902    -0.23800
H1351       H  0.76150958  0.54028978  0.33298961     0.15200
H1352       H  0.81251699  0.97469043  0.40365600     0.15200
C1353       C  0.76172515  0.96496085  0.36192183    -0.23700
H1354       H  0.80285491  0.57365150  0.33856335     0.05500
H1355       H  0.83900170  0.55352294  0.35538627     0.08700
H1356       H  0.80957375  0.57089138  0.39798955     0.08700
H1357       H  0.76299119  0.96425941  0.32396025     0.08700
H1358       H  0.72092861  0.43828357  0.43247743     0.08700
H1359       H  0.77650598  0.94434892  0.37674514     0.05400
C1360       C  0.75938959  0.52659447  0.23915080    -0.20400
C1361       C  0.75231483  0.49585785  0.26427177    -0.06900
C1362       C  0.77283166  0.46950799  0.25384899     0.13900
C1363       C  0.79964648  0.47438398  0.21797925    -0.20400
C1364       C  0.80641701  0.50494091  0.19122866    -0.06900
C1365       C  0.78619629  0.53163701  0.20285755     0.13900
C1366       C  0.79206905  0.56543004  0.17729355    -0.23800
H1367       H  0.74350048  0.54661562  0.24780612     0.15200
H1368       H  0.81479047  0.45372586  0.21003618     0.15200
C1369       C  0.76590050  0.43562411  0.27805228    -0.23700
H1370       H  0.77419460  0.58302518  0.19199078     0.05500
H1371       H  0.82680997  0.08889616  0.16369343     0.08500
H1372       H  0.81660170  0.57293855  0.18050792     0.08700
H1373       H  0.74292351  0.43396012  0.30318335     0.08700
H1374       H  0.78609068  0.42617812  0.29720586     0.08700
H1375       H  0.76373672  0.42008515  0.25149165     0.05400
C1376       C  0.58708770  0.52638703  0.32869191    -0.20400
C1377       C  0.56593902  0.50041010  0.34465266    -0.06900
C1378       C  0.58546830  0.98775619  0.34004326     0.13900
C1379       C  0.61199215  0.99213917  0.30304198    -0.20400
C1380       C  0.62106625  0.49556137  0.27488254    -0.06900
C1381       C  0.61450377  0.52428461  0.29405033     0.13900
C1382       C  0.63634557  0.55265835  0.27776550    -0.23800
H1383       H  0.58258385  0.54827435  0.34398588     0.15200
H1384       H  0.62756009  0.97181393  0.29487714     0.15200
C1385       C  0.57944658  0.95424538  0.36656207    -0.23700
H1386       H  0.62723687  0.57359369  0.29529016     0.05500
H1387       H  0.63772045  0.56014212  0.23932323     0.08700
H1388       H  0.66109041  0.54626558  0.28580291     0.08700
H1389       H  0.55486911  0.94669764  0.36365393     0.08700
H1390       H  0.58175665  0.95357751  0.40398806     0.08700
H1391       H  0.59721701  0.93635312  0.35242490     0.05400
C1392       C  0.58400015  0.46646547  0.12985682    -0.20400
C1393       C  0.56721780  0.49622685  0.12318802    -0.06900
C1394       C  0.57651859  0.52193641  0.14378317     0.13900
C1395       C  0.60283305  0.51753331  0.16859215    -0.20400
C1396       C  0.62011211  0.48820851  0.17370298    -0.06900
C1397       C  0.59957383  0.99729071  0.17362014     0.13900
C1398       C  0.61242333  0.96582086  0.19717620    -0.23800
H1399       H  0.56187048  0.97341597  0.15157533     0.15200
H1400       H  0.61045501  0.53740680  0.18333087     0.15200
C1401       C  0.55852945  0.55385422  0.14105478    -0.23700
H1402       H  0.61850066  0.94908114  0.17114888     0.05500
H1403       H  0.60707786  0.41109145  0.17906524     0.08700
H1404       H  0.63472264  0.96850861  0.21195175     0.08700
H1405       H  0.53251043  0.54973235  0.15508408     0.08700
H1406       H  0.56879269  0.08260407  0.05621869     0.08700
H1407       H  0.56767338  0.57009386  0.16216289     0.05400
N1408       N  0.64653791  0.02611563  0.73890419    -0.03500
C1409       C  0.64435471  0.02955996  0.69253426    -0.00900
C1410       C  0.67989701  0.47915340  0.67472852    -0.23800
C1411       C  0.70001590  0.47918804  0.70750003    -0.24000
C1412       C  0.68084041  0.48604642  0.74839665    -0.01000
H1413       H  0.68694336  0.47418077  0.63923573     0.12700
H1414       H  0.72555924  0.47324734  0.70168638     0.12800
N1415       N  0.72376841  0.49050803  0.79975319    -0.03500
C1416       C  0.72378392  0.48802353  0.84655863    -0.00900
C1417       C  0.69297289  0.48197226  0.87081027    -0.23800
C1418       C  0.67347057  0.47996164  0.83792371    -0.24000
C1419       C  0.69269889  0.48577354  0.79410073    -0.01000
H1420       H  0.68537840  0.47920603  0.90840895     0.12700
H1421       H  0.64815082  0.47400003  0.84623150     0.12800
N1422       N  0.91846735  0.72385598  0.74562875    -0.03500
C1423       C  0.91693084  0.72045467  0.70078381    -0.00900
C1424       C  0.91628519  0.75007653  0.67305280    -0.23800
C1425       C  0.91696402  0.77265519  0.70188979    -0.24000
C1426       C  0.91793143  0.75622529  0.74701028    -0.01000
H1427       H  0.91568492  0.75483735  0.63571678     0.12700
H1428       H  0.91662293  0.79806773  0.68967758     0.12800
N1429       N  0.92167570  0.80396737  0.79033506    -0.03500
C1430       C  0.92122167  0.80751723  0.83558967    -0.00900
C1431       C  0.91636117  0.77837502  0.86446434    -0.23800
C1432       C  0.91400625  0.75593049  0.83580880    -0.24000
C1433       C  0.91788459  0.77196099  0.78978308    -0.01000
H1434       H  0.91448921  0.77391935  0.90230594     0.12700
H1435       H  0.90937074  0.73085173  0.84850647     0.12800
N1436       N  0.91261648  0.58002686  0.56027537    -0.06200
N1437       N  0.90012670  0.59712872  0.59322241    -0.58300
N1438       N  0.94314448  0.58272214  0.94511744    -0.05900
N1439       N  0.95204418  0.60373508  0.90685788    -0.60400
N1440       N  0.91131946  0.58098011  0.95413885    -0.05400
N1441       N  0.89811640  0.60075145  0.92207395    -0.58300
N1442       N  0.94438252  0.58213935  0.55183894    -0.05100
N1443       N  0.95407117  0.60071828  0.57905509    -0.60800
C1444       C  0.92622791  0.60977133  0.60508693     0.96000
C1445       C  0.92372696  0.61472297  0.89237897     0.95800
N1446       N  0.50547274  0.99641038  0.95346111    -0.06400
N1447       N  0.52759364  0.98603979  0.92102738    -0.58900
N1448       N  0.50975998  0.51918580  0.54572677    -0.04500
N1449       N  0.53020891  0.52743929  0.57140559    -0.60100
N1450       N  0.50501738  0.99988476  0.55805470    -0.06400
N1451       N  0.52558724  0.99193576  0.58814557    -0.59100
N1452       N  0.50918059  0.52115168  0.94056773    -0.04100
N1453       N  0.52968624  0.53033210  0.90157272    -0.60200
Mn1454     Mn  0.97365513  0.55816925  0.99574754     1.18400
C1455       C  0.53876620  0.50256255  0.88448465     0.98100
C1456       C  0.54009281  0.49909299  0.59446734     0.98800
N1457       N  0.86185922  0.52332814  0.98136870    -0.06400
N1458       N  0.84124212  0.53245836  0.95166150    -0.62700
N1459       N  0.86763528  0.00360356  0.58592427    -0.05200
N1460       N  0.84669075  0.99354927  0.62401951    -0.63400
N1461       N  0.86318522  0.52331282  0.58620633    -0.05900
N1462       N  0.84283655  0.53329168  0.62085997    -0.63000
N1463       N  0.86789557  0.00469854  0.98105165    -0.04800
N1464       N  0.84847915  0.99564056  0.95445276    -0.63700
Mn1465     Mn  0.88687729  0.55232765  0.52055336     1.10700
C1466       C  0.83195548  0.50441436  0.94123904     0.99300
C1467       C  0.83335816  0.50590843  0.65025267     0.99400
N1468       N  0.95113546  0.94286191  0.57697852    -0.05900
N1469       N  0.96136496  0.92159255  0.61022457    -0.61300
N1470       N  0.91858412  0.94729859  0.97963045    -0.05200
N1471       N  0.90567571  0.93088325  0.95277648    -0.58000
N1472       N  0.95039496  0.94446063  0.97164264    -0.06600
N1473       N  0.95962695  0.92588950  0.93918345    -0.60900
N1474       N  0.91929920  0.94555098  0.58458410    -0.05500
N1475       N  0.90735154  0.92614260  0.62313122    -0.58000
Mn1476     Mn  0.97995018  0.96798912  0.51246379     1.20200
Mn1477     Mn  0.89274210  0.97510233  0.53288495     1.10100
Cl1478     Cl  0.93425680  0.51162082  0.51858501    -0.86000
C1479       C  0.93385204  0.91134807  0.63912938     0.96300
C1480       C  0.93138255  0.91768995  0.92732414     0.96100
C1481       C  0.89735546  0.85689471  0.86468762    -0.20400
C1482       C  0.92511694  0.83820303  0.85253637    -0.06900
C1483       C  0.95543232  0.84760455  0.86053782     0.13900
C1484       C  0.95685259  0.87435045  0.88326714    -0.20400
C1485       C  0.92872183  0.89214039  0.89818766    -0.06900
C1486       C  0.89869789  0.88403331  0.88659069     0.13900
C1487       C  0.86776743  0.90345688  0.89697118    -0.23800
H1488       H  0.87417663  0.84956754  0.85850900     0.15200
H1489       H  0.98014793  0.88068818  0.89052174     0.15200
C1490       C  0.98662822  0.82959037  0.84641639    -0.23700
H1491       H  0.84763027  0.89492461  0.88189470     0.05500
H1492       H  0.87162146  0.92911493  0.88135015     0.08700
H1493       H  0.85975125  0.90125195  0.93541814     0.08700
H1494       H  0.00361531  0.84614947  0.82154603     0.08700
H1495       H  0.98309901  0.80878317  0.82905406     0.08700
H1496       H  0.99792919  0.82045662  0.87799342     0.05400
C1497       C  0.95567958  0.84138519  0.73153622    -0.20400
C1498       C  0.92481087  0.83028598  0.75191463    -0.06900
C1499       C  0.89719088  0.84588370  0.73595239     0.13900
C1500       C  0.90106781  0.87238387  0.69976372    -0.20400
C1501       C  0.93202566  0.88361990  0.67847593    -0.06900
C1502       C  0.95981504  0.86770018  0.69484327     0.13900
C1503       C  0.99391832  0.87796549  0.67441581    -0.23800
H1504       H  0.97662820  0.82912235  0.74438568     0.15200
H1505       H  0.87961626  0.88402980  0.68763014     0.15200
C1506       C  0.86373371  0.83363299  0.75591466    -0.23700
H1507       H  0.01223895  0.86324021  0.69267871     0.05500
H1508       H  0.99686584  0.90347301  0.67799772     0.08700
H1509       H  0.99926198  0.87492258  0.63690517     0.08700
H1510       H  0.85857806  0.83417193  0.79412978     0.08700
H1511       H  0.86201514  0.80847034  0.74984039     0.08700
H1512       H  0.84469949  0.84840755  0.73933056     0.05400
C1513       C  0.94941341  0.66070447  0.83558749    -0.20400
C1514       C  0.92131863  0.64284342  0.85439848    -0.06900
C1515       C  0.89209019  0.65243917  0.83644931     0.13900
C1516       C  0.89190559  0.67938424  0.80098868    -0.20400
C1517       C  0.91985034  0.69723187  0.78312190    -0.06900
C1518       C  0.94904046  0.68761007  0.80025502     0.13900
C1519       C  0.51883882  0.68912560  0.76866292    -0.23800
H1520       H  0.97201439  0.65376763  0.84851233     0.15200
H1521       H  0.86980589  0.68676529  0.78690343     0.15200
C1522       C  0.86104663  0.63437734  0.85346304    -0.23700
H1523       H  0.53332059  0.66898414  0.75465097     0.05500
H1524       H  0.53028272  0.69624911  0.79705389     0.08700
H1525       H  0.97753786  0.72553751  0.75332385     0.08700
H1526       H  0.85251052  0.63599037  0.89102152     0.08700
H1527       H  0.86510359  0.60879447  0.84862312     0.08700
H1528       H  0.84131133  0.64446257  0.83374409     0.05400
C1529       C  0.89450831  0.65415374  0.63916232    -0.20400
C1530       C  0.92361387  0.63587383  0.63443558    -0.06900
C1531       C  0.94924065  0.64348216  0.65694813     0.13900
C1532       C  0.94566038  0.67019736  0.68079518    -0.20400
C1533       C  0.91742244  0.68958689  0.68250250    -0.06900
C1534       C  0.89116689  0.68094956  0.66260833     0.13900
C1535       C  0.85952885  0.69992083  0.66623255    -0.23800
H1536       H  0.87447258  0.64817162  0.62300555     0.15200
H1537       H  0.96573788  0.67689121  0.69659007     0.15200
C1538       C  0.98031581  0.62373543  0.65601225    -0.23700
H1539       H  0.84113913  0.68907861  0.65038114     0.05500
H1540       H  0.86328356  0.72490902  0.64761375     0.08700
H1541       H  0.84961854  0.70048508  0.70373036     0.08700
H1542       H  0.51935036  0.61851248  0.60472829     0.08700
H1543       H  0.97491193  0.59805109  0.66957058     0.08700
H1544       H  0.52625601  0.62467059  0.66137012     0.05400
C1545       C  0.76887969  0.52061532  0.85837984    -0.20400
C1546       C  0.75243889  0.49142017  0.86913692    -0.06900
C1547       C  0.76254849  0.46660974  0.90280866     0.13900
C1548       C  0.78874055  0.47169866  0.92491142    -0.20400
C1549       C  0.80486957  0.50113257  0.91519288    -0.06900
C1550       C  0.79483486  0.52593423  0.88119282     0.13900
C1551       C  0.81144621  0.55784074  0.86813558    -0.23800
H1552       H  0.76080444  0.53964152  0.83291723     0.15200
H1553       H  0.81285674  0.97412333  0.90338569     0.15200
C1554       C  0.76219413  0.96462757  0.86118399    -0.23700
H1555       H  0.80147690  0.57358144  0.83920461     0.05500
H1556       H  0.83775768  0.55387647  0.85622422     0.08700
H1557       H  0.80792642  0.57085016  0.89875566     0.08700
H1558       H  0.76357309  0.96420240  0.82313455     0.08700
H1559       H  0.72077630  0.43741816  0.93225847     0.08700
H1560       H  0.77700526  0.94396614  0.87579594     0.05400
C1561       C  0.75904279  0.52542618  0.73867863    -0.20400
C1562       C  0.75209492  0.49474649  0.76406987    -0.06900
C1563       C  0.77265082  0.46839642  0.75372563     0.13900
C1564       C  0.79944799  0.47324162  0.71778670    -0.20400
C1565       C  0.80614088  0.50375928  0.69086286    -0.06900
C1566       C  0.78578828  0.53042882  0.70227793     0.13900
C1567       C  0.79141259  0.56415449  0.67631040    -0.23800
H1568       H  0.74308051  0.54543179  0.74718223     0.15200
H1569       H  0.81465412  0.45260040  0.70994738     0.15200
C1570       C  0.76579157  0.43454168  0.77811647    -0.23700
H1571       H  0.77336592  0.58171601  0.69071989     0.05500
H1572       H  0.82672881  0.08933107  0.66374952     0.08500
H1573       H  0.81584905  0.57195267  0.67946560     0.08700
H1574       H  0.74284328  0.43289667  0.80331170     0.08700
H1575       H  0.78602322  0.42518640  0.79723854     0.08700
H1576       H  0.76361430  0.41891383  0.75167338     0.05400
C1577       C  0.58732470  0.52554635  0.82924939    -0.20400
C1578       C  0.56594378  0.49973673  0.84495237    -0.06900
C1579       C  0.58542811  0.98779739  0.83997188     0.13900
C1580       C  0.61203456  0.99214680  0.80308870    -0.20400
C1581       C  0.62083918  0.49482858  0.77481146    -0.06900
C1582       C  0.61460701  0.52343285  0.79438836     0.13900
C1583       C  0.63662113  0.55169229  0.77826892    -0.23800
H1584       H  0.58309899  0.54730619  0.84490311     0.15200
H1585       H  0.62756009  0.97179030  0.79493974     0.15200
C1586       C  0.57926477  0.95427937  0.86638637    -0.23700
H1587       H  0.62773362  0.57255145  0.79609880     0.05500
H1588       H  0.63787663  0.55939602  0.73988336     0.08700
H1589       H  0.66138352  0.54509066  0.78605916     0.08700
H1590       H  0.55468111  0.94682797  0.86333573     0.08700
H1591       H  0.58150048  0.95354062  0.90385264     0.08700
H1592       H  0.59700676  0.93635601  0.85227118     0.05400
C1593       C  0.58419531  0.46616806  0.62835289    -0.20400
C1594       C  0.56682813  0.49565090  0.62303730    -0.06900
C1595       C  0.57551617  0.52095302  0.64496799     0.13900
C1596       C  0.60186091  0.51648918  0.66972288    -0.20400
C1597       C  0.61974006  0.48746495  0.67353183    -0.06900
C1598       C  0.59982062  0.99726697  0.67375002     0.13900
C1599       C  0.61272790  0.96580919  0.69725536    -0.23800
H1600       H  0.56214380  0.97334043  0.65172618     0.15200
H1601       H  0.60903903  0.53611020  0.68541760     0.15200
C1602       C  0.55685585  0.55248434  0.64364594    -0.23700
H1603       H  0.61881785  0.94908888  0.67120284     0.05500
H1604       H  0.60809514  0.41039218  0.67505084     0.08700
H1605       H  0.63503269  0.96852376  0.71200355     0.08700
H1606       H  0.53088834  0.54774297  0.65733475     0.08700
H1607       H  0.56887051  0.08255657  0.55644401     0.08700
H1608       H  0.56555314  0.56833873  0.66570978     0.05400
loop_ 
_geom_bond_atom_site_label_1 
_geom_bond_atom_site_label_2 
_geom_bond_distance 
_geom_bond_site_symmetry_2 
_ccdc_geom_bond_type 
N1            C2   1.357       .  A
N1          C407   1.366       .  A
N1          C576   1.445       .  S
C2          C405   1.378       .  A
C2          C592   1.482       .  S
C3            C4   1.375       .  A
C3          C404   1.377       .  A
C3            H6   1.083       .  S
C4            C5   1.389       .  A
C4            H7   1.078       .  S
C5          N403   1.362       .  A
C5           C12   1.495       .  S
N8           C12   1.361       .  A
N8            C9   1.355       .  A
N8          C155   1.441       .  S
C9           C10   1.379       .  A
C9          C139   1.480       .  S
C10          C11   1.374       .  A
C10          H13   1.082       .  S
C11          C12   1.388       .  A
C11          H14   1.079       .  S
N15          C19   1.374       .  A
N15          C16   1.356       .  A
N15         C110   1.448       .  S
C16          C17   1.373       .  A
C16         C126   1.480       .  S
C17          C18   1.370       .  A
C17          H20   1.082       .  S
C18          C19   1.391       .  A
C18          H21   1.074       .  S
C19          C26   1.509       .  S
N22          C26   1.372       .  A
N22          C23   1.354       .  A
N22          C91   1.442       .  S
C23          C24   1.376       .  A
C23          C75   1.487       .  S
C24          C25   1.378       .  A
C24          H27   1.082       .  S
C25          C26   1.390       .  A
C25          H28   1.077       .  S
N29          N30   1.321       .  A
N29          N35   1.315       .  A
N29         Mn58   2.198       .  S
N30          C37   1.355       .  A
N31          N33   1.317       .  A
N31          N32   1.323       .  A
N31         Mn47   2.222       .  S
N32          C38   1.358       .  A
N33          N34   1.325       .  A
N33        Mn259   2.227       .  S
N34          C38   1.358       .  A
N35          N36   1.320       .  A
N35        Mn248   2.208   1_554  S
N36          C37   1.354       .  A
C37         C123   1.487       .  S
C38         C107   1.507       .  S
N39          N40   1.321       .  A
N39         N447   1.316       .  A
N39       Mn1074   2.205   1_455  S
N40         C450   1.353       .  A
N41          N42   1.320       .  A
N41         N445   1.315   1_545  A
N41       Mn1052   2.207   1_454  S
N42          C49   1.354       .  A
N43          N44   1.324       .  A
N43         N443   1.314       .  A
N43        Mn873   2.211   1_455  S
N44         C451   1.359       .  A
N45          N46   1.323       .  A
N45         N441   1.315   1_545  A
N45        Mn851   2.214   1_455  S
N46          C48   1.357       .  A
Mn47        N236   2.208       .  S
Mn47       N1046   2.208       .  S
Mn47        N849   2.219       .  S
Mn47       Cl272   2.546       .  S
C48         N442   1.352   1_545  A
C48         C171   1.489       .  S
C49         N446   1.355   1_545  A
C49         C187   1.488       .  S
N50          N51   1.319       .  A
N50         N458   1.315   1_545  A
N50        Mn259   2.201       .  S
N51          C59   1.353   1_545  A
N52          N53   1.323       .  A
N52         N456   1.317       .  A
N52         Mn70   2.213       .  S
N53         C462   1.356       .  A
N54          N55   1.323       .  A
N54         N454   1.315   1_545  A
N54         Mn58   2.220       .  S
N55          C60   1.357       .  A
N56          N57   1.320       .  A
N56         N452   1.315       .  A
N56        Mn271   2.203       .  S
N57         C461   1.355       .  A
Mn58        N234   2.228   1_554  S
Mn58        N251   2.201   1_554  S
Mn58        Cl71   2.558       .  S
C59         N459   1.354       .  A
C59         C142   1.484       .  S
C60         N455   1.355   1_545  A
C60         C158   1.498       .  S
N61          N62   1.322       .  A
N61          N67   1.315       .  A
N61         Mn69   2.213       .  S
N62          C72   1.355       .  A
N63          N64   1.322       .  A
N63          N65   1.315       .  A
N63        Mn271   2.209       .  S
N64          C73   1.355       .  A
N65          N66   1.322       .  A
N65        Mn270   2.217       .  S
N66          C73   1.358       .  A
N67          N68   1.321       .  A
N67         Mn70   2.211       .  S
N68          C72   1.357       .  A
Mn69       N1044   2.209   1_554  S
Mn69        N847   2.211       .  S
Mn69        N266   2.216   1_554  S
Mn69       Cl473   2.555       .  S
Mn70        N257   2.196   1_554  S
Mn70        N264   2.209   1_554  S
Mn70       Cl473   2.550       .  S
Cl71       Mn248   2.546   1_554  S
Cl71       Mn471   2.556   1_545  S
Cl71       Mn472   2.550   1_545  S
C72          C94   1.498       .  S
C73          C78   1.498       .  S
C74          C75   1.402       .  A
C74          C79   1.410       .  A
C74          H81   1.082       .  S
C75          C76   1.412       .  A
C76          C77   1.404       .  A
C76          C83   1.508       .  S
C77          C78   1.407       .  A
C77          H82   1.084       .  S
C78          C79   1.422       .  A
C79          C80   1.508       .  S
C80          H84   1.111       .  S
C80          H85   1.110       .  S
C80          H86   1.109       .  S
C83          H87   1.110       .  S
C83          H88   1.108       .  S
C83          H89   1.110       .  S
C90          C91   1.400       .  A
C90          C95   1.409       .  A
C90          H97   1.084       .  S
C91          C92   1.409       .  A
C92          C93   1.405       .  A
C92          C99   1.505       .  S
C93          C94   1.409       .  A
C93          H98   1.083       .  S
C94          C95   1.423       .  A
C95          C96   1.507       .  S
C96         H100   1.111       .  S
C96         H101   1.110       .  S
C96         H102   1.109       .  S
C99         H103   1.108       .  S
C99         H104   1.109       .  S
C99         H105   1.111       .  S
C106        C107   1.410       .  A
C106        C111   1.408       .  A
C106        H113   1.083       .  S
C107        C108   1.424       .  A
C108        C109   1.413       .  A
C108        C115   1.507       .  S
C109        C110   1.403       .  A
C109        H114   1.083       .  S
C110        C111   1.412       .  A
C111        C916   1.505       .  S
C112        C915   1.506   1_455  S
C112        H116   1.110       .  S
C112        H117   1.110       .  S
C112        H922   1.108       .  S
C115        H119   1.109       .  S
C115        H120   1.110       .  S
C115        H121   1.111       .  S
H118        C916   1.108       .  S
C122        C123   1.405       .  A
C122        C127   1.403       .  A
C122        H129   1.086       .  S
C123        C124   1.420       .  A
C124        C125   1.405       .  A
C124        C131   1.506       .  S
C125        C126   1.398       .  A
C125        H130   1.090       .  S
C126        C127   1.413       .  A
C127        C128   1.508       .  S
C128        H132   1.111       .  S
C128        H133   1.109       .  S
C128        H134   1.110       .  S
C131        H136   1.110       .  S
C131        H939   1.108       .  S
C131        H941   1.112       .  S
H135        C935   1.110       .  S
H137        C935   1.111       .  S
C138        C139   1.401   1_545  A
C138        C143   1.403       .  A
C138        H145   1.082       .  S
C139        C140   1.414       .  A
C140        C141   1.403       .  A
C140        C549   1.509       .  S
C141        C142   1.406       .  A
C141        H548   1.084       .  S
C142        C143   1.417   1_565  A
C143        C144   1.508       .  S
C144        H148   1.111       .  S
C144        H149   1.110       .  S
C144        H150   1.109       .  S
H146        C543   1.084       .  S
C147        C542   1.506       .  S
C147        H151   1.107       .  S
C147        H153   1.111       .  S
C147        H554   1.110       .  S
H152        C549   1.107       .  S
C154        C155   1.400   1_545  A
C154        C159   1.410       .  A
C154        H161   1.083       .  S
C155        C156   1.410       .  A
C156        C157   1.401       .  A
C156        C163   1.505       .  S
C157        C158   1.408   1_565  A
C157        H162   1.083       .  S
C158        C159   1.423       .  A
C159        C160   1.506       .  S
C160        H164   1.111       .  S
C160        H166   1.110       .  S
C160        H567   1.110       .  S
C163        H167   1.106       .  S
C163        H168   1.110       .  S
C163        H169   1.110       .  S
H165        C562   1.109       .  S
C170        C171   1.408       .  A
C170        C175   1.406       .  A
C170        H177   1.083       .  S
C171        C574   1.420   1_545  A
C172        C173   1.410       .  A
C172        C573   1.425       .  A
C172        C179   1.507       .  S
C173        C576   1.400       .  A
C173        H178   1.083       .  S
C174        N403   1.441       .  S
C174        C175   1.410   1_565  A
C174        C575   1.400       .  A
C175        C176   1.505       .  S
C176        H180   1.111       .  S
C176        H181   1.110       .  S
C176        H182   1.108       .  S
C179        H183   1.110       .  S
C179        H184   1.110       .  S
C179        H185   1.111       .  S
C186        C187   1.405   1_565  A
C186        C593   1.400       .  A
C186        H595   1.084       .  S
C187        C188   1.419       .  A
C188        C189   1.405       .  A
C188        C195   1.504       .  S
C189        C190   1.399   1_545  A
C189        H194   1.084       .  S
C190        C593   1.412       .  A
C190        C404   1.477       .  S
C191        C588   1.406       .  A
C191        C592   1.414       .  A
C191        C192   1.506       .  S
C192        H196   1.110       .  S
C192        H198   1.107       .  S
C192        H599   1.110       .  S
H193        C588   1.084       .  S
C195        H199   1.110       .  S
C195        H201   1.111       .  S
C195        H602   1.109       .  S
H197        C594   1.111       .  S
H200        C597   1.110       .  S
N202        C608   1.366       .  A
N202        C203   1.354       .  A
N202        C777   1.444       .  S
C203        C606   1.376       .  A
C203        C793   1.476       .  S
C204        C605   1.377       .  A
C204        C205   1.375       .  A
C204        H207   1.083       .  S
C205        C206   1.389       .  A
C205        H208   1.078       .  S
C206        N604   1.362       .  A
C206        C213   1.495       .  S
N209        C213   1.361       .  A
N209        C210   1.355       .  A
N209        C356   1.441       .  S
C210        C211   1.379       .  A
C210        C340   1.480       .  S
C211        C212   1.374       .  A
C211        H214   1.082       .  S
C212        C213   1.388       .  A
C212        H215   1.079       .  S
N216        C220   1.374       .  A
N216        C217   1.357       .  A
N216        C311   1.448       .  S
C217        C218   1.374       .  A
C217        C327   1.480       .  S
C218        C219   1.370       .  A
C218        H221   1.082       .  S
C219        C220   1.391       .  A
C219        H222   1.074       .  S
C220        C227   1.509       .  S
N223        C227   1.372       .  A
N223        C224   1.355       .  A
N223        C292   1.442       .  S
C224        C225   1.376       .  A
C224        C276   1.487       .  S
C225        C226   1.377       .  A
C225        H228   1.082       .  S
C226        C227   1.390       .  A
C226        H229   1.077       .  S
N230        N231   1.321       .  A
N230        N236   1.315       .  A
N230       Mn259   2.199       .  S
N231        C238   1.355       .  A
N232        N234   1.317       .  A
N232        N233   1.323       .  A
N232       Mn248   2.223       .  S
N233        C239   1.358       .  A
N234        N235   1.325       .  A
N235        C239   1.358       .  A
N236        N237   1.320       .  A
N237        C238   1.354       .  A
C238        C324   1.487       .  S
C239        C308   1.508       .  S
N240        N648   1.315       .  A
N240        N241   1.320       .  A
N240       Mn873   2.201   1_456  S
N241        C651   1.352       .  A
N242        N243   1.321       .  A
N242        N646   1.315   1_545  A
N242       Mn851   2.207   1_455  S
N243        C250   1.354       .  A
N244        N644   1.314       .  A
N244        N245   1.322       .  A
N244      Mn1074   2.205   1_455  S
N245        C652   1.358       .  A
N246        N642   1.315   1_545  A
N246        N247   1.323       .  A
N246      Mn1052   2.213   1_455  S
N247        C249   1.357       .  A
Mn248       N845   2.209   1_556  S
Mn248      N1050   2.219       .  S
C249        N643   1.352   1_545  A
C249        C372   1.489       .  S
C250        N647   1.355   1_545  A
C250        C388   1.489       .  S
N251        N252   1.319       .  A
N251        N659   1.315   1_545  A
N252        C260   1.353   1_545  A
N253        N657   1.316       .  A
N253        N254   1.322       .  A
N253       Mn271   2.210       .  S
N254        C663   1.355       .  A
N255        N655   1.315   1_545  A
N255        N256   1.323       .  A
N255       Mn259   2.219       .  S
N256        C261   1.356       .  A
N257        N653   1.315       .  A
N257        N258   1.318       .  A
N258        C662   1.353       .  A
Mn259      Cl272   2.558       .  S
C260        N660   1.354       .  A
C260        C343   1.484       .  S
C261        N656   1.355   1_545  A
C261        C359   1.498       .  S
N262        N263   1.322       .  A
N262        N268   1.315       .  A
N262       Mn270   2.212       .  S
N263        C273   1.355       .  A
N264        N265   1.322       .  A
N264        N266   1.315       .  A
N265        C274   1.355       .  A
N266        N267   1.323       .  A
N267        C274   1.358       .  A
N268        N269   1.322       .  A
N268       Mn271   2.213       .  S
N269        C273   1.357       .  A
Mn270       N843   2.207       .  S
Mn270      N1048   2.211       .  S
Mn270      Cl674   2.554       .  S
Mn271      Cl674   2.551       .  S
Cl272      Mn672   2.556   1_545  S
Cl272      Mn673   2.550   1_545  S
C273        C295   1.498       .  S
C274        C279   1.498       .  S
C275        C276   1.402       .  A
C275        C280   1.410       .  A
C275        H282   1.082       .  S
C276        C277   1.412       .  A
C277        C278   1.404       .  A
C277        C284   1.508       .  S
C278        C279   1.407       .  A
C278        H283   1.084       .  S
C279        C280   1.422       .  A
C280        C281   1.508       .  S
C281        H285   1.111       .  S
C281        H286   1.110       .  S
C281        H287   1.109       .  S
C284        H288   1.110       .  S
C284        H289   1.108       .  S
C284        H290   1.110       .  S
C291        C292   1.400       .  A
C291        C296   1.409       .  A
C291        H298   1.084       .  S
C292        C293   1.409       .  A
C293        C294   1.405       .  A
C293        C300   1.505       .  S
C294        C295   1.409       .  A
C294        H299   1.083       .  S
C295        C296   1.423       .  A
C296        C297   1.507       .  S
C297        H301   1.111       .  S
C297        H302   1.110       .  S
C297        H303   1.109       .  S
C300        H304   1.108       .  S
C300        H305   1.109       .  S
C300        H306   1.111       .  S
C307        C308   1.411       .  A
C307        C312   1.408       .  A
C307        H314   1.083       .  S
C308        C309   1.424       .  A
C309        C310   1.413       .  A
C309        C316   1.507       .  S
C310        C311   1.403       .  A
C310        H315   1.083       .  S
C311        C312   1.412       .  A
C312       C1117   1.505       .  S
C313       C1116   1.506   1_455  S
C313        H317   1.110       .  S
C313        H318   1.110       .  S
C313       H1123   1.108       .  S
C316        H320   1.109       .  S
C316        H321   1.110       .  S
C316        H322   1.111       .  S
H319       C1117   1.108       .  S
C323        C324   1.405       .  A
C323        C328   1.403       .  A
C323        H330   1.086       .  S
C324        C325   1.420       .  A
C325        C326   1.405       .  A
C325        C332   1.506       .  S
C326        C327   1.398       .  A
C326        H331   1.090       .  S
C327        C328   1.413       .  A
C328        C329   1.508       .  S
C329        H333   1.111       .  S
C329        H334   1.109       .  S
C329        H335   1.110       .  S
C332       H1140   1.108       .  S
C332        H337   1.110       .  S
C332       H1142   1.112       .  S
H336       C1136   1.110       .  S
H338       C1136   1.111       .  S
C339        C340   1.401   1_545  A
C339        C344   1.403       .  A
C339        H346   1.082       .  S
C340        C341   1.413       .  A
C341        C342   1.403       .  A
C341        C750   1.509       .  S
C342        C343   1.406       .  A
C342        H749   1.084       .  S
C343        C344   1.417   1_565  A
C344        C345   1.508       .  S
C345        H349   1.111       .  S
C345        H350   1.110       .  S
C345        H351   1.109       .  S
H347        C744   1.084       .  S
C348        C743   1.506       .  S
C348        H352   1.108       .  S
C348        H755   1.110       .  S
C348        H354   1.111       .  S
H353        C750   1.107       .  S
C355        C356   1.400   1_545  A
C355        C360   1.410       .  A
C355        H362   1.083       .  S
C356        C357   1.410       .  A
C357        C358   1.401       .  A
C357        C364   1.505       .  S
C358        C359   1.408   1_565  A
C358        H363   1.083       .  S
C359        C360   1.423       .  A
C360        C361   1.506       .  S
C361        H365   1.111       .  S
C361        H768   1.110       .  S
C361        H367   1.110       .  S
C364        H368   1.106       .  S
C364        H369   1.110       .  S
C364        H370   1.110       .  S
H366        C763   1.109       .  S
C371        C372   1.408       .  A
C371        C376   1.406       .  A
C371        H378   1.083       .  S
C372        C775   1.420   1_545  A
C373        C774   1.427       .  A
C373        C374   1.409       .  A
C373        C380   1.508       .  S
C374        C777   1.398       .  A
C374        H379   1.083       .  S
C375        N604   1.441       .  S
C375        C776   1.400       .  A
C375        C376   1.410   1_565  A
C376        C377   1.505       .  S
C377        H381   1.111       .  S
C377        H382   1.110       .  S
C377        H383   1.108       .  S
C380        H384   1.110       .  S
C380        H385   1.110       .  S
C380        H386   1.111       .  S
C387        C388   1.406   1_565  A
C387        C794   1.400       .  A
C387        H796   1.084       .  S
C388        C389   1.419       .  A
C389        C390   1.405       .  A
C389        C396   1.504       .  S
C390        C391   1.399   1_545  A
C390        H395   1.084       .  S
C391        C794   1.412       .  A
C391        C605   1.477       .  S
C392        C789   1.404       .  A
C392        C793   1.412       .  A
C392        C393   1.506       .  S
C393        H397   1.110       .  S
C393        H800   1.110       .  S
C393        H399   1.107       .  S
H394        C789   1.084       .  S
C396        H400   1.110       .  S
C396        H803   1.109       .  S
C396        H402   1.111       .  S
H398        C795   1.111       .  S
H401        C798   1.110       .  S
N403        C404   1.352       .  A
C405        C406   1.373       .  A
C405        H408   1.083       .  S
C406        C407   1.387       .  A
C406        H409   1.079       .  S
C407        C414   1.496       .  S
N410        C414   1.368       .  A
N410        C411   1.355       .  A
N410        C557   1.447       .  S
C411        C412   1.375       .  A
C411        C541   1.478       .  S
C412        C413   1.373       .  A
C412        H415   1.082       .  S
C413        C414   1.389       .  A
C413        H416   1.079       .  S
N417        C421   1.367       .  A
N417        C418   1.354       .  A
N417        C512   1.439       .  S
C418        C419   1.377       .  A
C418        C528   1.485       .  S
C419        C420   1.377       .  A
C419        H422   1.082       .  S
C420        C421   1.390       .  A
C420        H423   1.081       .  S
C421        C428   1.507       .  S
N424        C428   1.368       .  A
N424        C425   1.353       .  A
N424        C493   1.441       .  S
C425        C426   1.374       .  A
C425        C477   1.480       .  S
C426        C427   1.376       .  A
C426        H429   1.082       .  S
C427        C428   1.392       .  A
C427        H430   1.067       .  S
N431        N432   1.324       .  A
N431        N437   1.316       .  A
N431       Mn460   2.217       .  S
N432        C439   1.358       .  A
N433        N435   1.315       .  A
N433        N434   1.320       .  A
N433       Mn449   2.199       .  S
N434        C440   1.354       .  A
N435        N436   1.322       .  A
N435       Mn661   2.219       .  S
N436        C440   1.357       .  A
N437        N438   1.321       .  A
N437       Mn650   2.220   1_554  S
N438        C439   1.355       .  A
C439        C525   1.500       .  S
C440        C509   1.496       .  S
N441        N442   1.318       .  A
N441      Mn1476   2.198   1_455  S
N443        N444   1.315       .  A
N443      Mn1454   2.189   1_454  S
N444        C451   1.349       .  A
N445        N446   1.320       .  A
N445      Mn1275   2.206   1_455  S
N447        N448   1.324       .  A
N447      Mn1253   2.223   1_455  S
N448        C450   1.359       .  A
Mn449       N638   2.221       .  S
Mn449      N1448   2.199       .  S
Mn449      N1251   2.219       .  S
Mn449      Cl674   2.551       .  S
C450        C573   1.499       .  S
C451        C589   1.489       .  S
N452        N453   1.321       .  A
N452       Mn661   2.210       .  S
N453        C461   1.355       .  A
N454        N455   1.320       .  A
N454       Mn472   2.203       .  S
N456        N457   1.322       .  A
N456       Mn460   2.221       .  S
N457        C462   1.356       .  A
N458        N459   1.320       .  A
N458       Mn673   2.198       .  S
Mn460       N636   2.219   1_554  S
Mn460       N653   2.214   1_554  S
Mn460      Cl473   2.558       .  S
C461        C544   1.494       .  S
C462        C560   1.497       .  S
N463        N464   1.321       .  A
N463        N469   1.315       .  A
N463       Mn471   2.218       .  S
N464        C474   1.356       .  A
N465        N466   1.321       .  A
N465        N467   1.315       .  A
N465       Mn673   2.204       .  S
N466        C475   1.354       .  A
N467        N468   1.320       .  A
N467       Mn672   2.208       .  S
N468        C475   1.356       .  A
N469        N470   1.322       .  A
N469       Mn472   2.202       .  S
N470        C474   1.355       .  A
Mn471      N1446   2.219   1_554  S
Mn471      N1249   2.206   1_565  S
Mn471       N668   2.207   1_554  S
Mn472       N659   2.198   1_554  S
Mn472       N666   2.203   1_554  S
Cl473      Mn650   2.550   1_554  S
C474        C496   1.493       .  S
C475        C480   1.493       .  S
C476        C477   1.400       .  A
C476        C481   1.408       .  A
C476        H483   1.084       .  S
C477        C478   1.411       .  A
C478        C479   1.401       .  A
C478        C485   1.508       .  S
C479        C480   1.407       .  A
C479        H484   1.084       .  S
C480        C481   1.422       .  A
C481        C482   1.508       .  S
C482        H486   1.111       .  S
C482        H487   1.111       .  S
C482        H488   1.109       .  S
C485        H489   1.111       .  S
C485        H490   1.108       .  S
C485        H491   1.110       .  S
C492        C493   1.400       .  A
C492        C497   1.404       .  A
C492        H499   1.083       .  S
C493        C494   1.408       .  A
C494        C495   1.407       .  A
C494        C501   1.505       .  S
C495        C496   1.411       .  A
C495        H500   1.084       .  S
C496        C497   1.419       .  A
C497        C498   1.508       .  S
C498        H502   1.111       .  S
C498        H503   1.111       .  S
C498        H504   1.109       .  S
C501        H505   1.110       .  S
C501        H506   1.109       .  S
C501        H507   1.111       .  S
C508        C509   1.410       .  A
C508        C513   1.404       .  A
C508        H515   1.083       .  S
C509        C510   1.421       .  A
C510        C511   1.406       .  A
C510        C517   1.506       .  S
C511        C512   1.397       .  A
C511        H516   1.083       .  S
C512        C513   1.411       .  A
C513       C1318   1.506       .  S
C514       C1317   1.505       .  S
C514        H518   1.110   1_655  S
C514        H519   1.110       .  S
C514       H1324   1.108       .  S
C517        H521   1.109       .  S
C517        H522   1.110       .  S
C517        H523   1.111       .  S
H520       C1318   1.109       .  S
C524        C525   1.409       .  A
C524        C529   1.409       .  A
C524        H531   1.082       .  S
C525        C526   1.422       .  A
C526        C527   1.407       .  A
C526        C533   1.503       .  S
C527        C528   1.398       .  A
C527        H532   1.081       .  S
C528        C529   1.411       .  A
C529        C530   1.507       .  S
C530        H534   1.111       .  S
C530        H535   1.110       .  S
C530        H536   1.110       .  S
C533       H1341   1.109       .  S
C533        H538   1.108       .  S
C533       H1343   1.111       .  S
H537       C1337   1.108       .  S
H539       C1337   1.112       .  S
C540        C541   1.399       .  A
C540        C545   1.405       .  A
C540        H547   1.084       .  S
C541        C542   1.407       .  A
C542        C543   1.403       .  A
C543        C544   1.409       .  A
C544        C545   1.422       .  A
C545        C546   1.507       .  S
C546        H550   1.111       .  S
C546        H551   1.109       .  S
C546        H552   1.110       .  S
C549        H553   1.108       .  S
C549        H555   1.111       .  S
C556        C557   1.402       .  A
C556        C561   1.406       .  A
C556        H563   1.084       .  S
C557        C558   1.413       .  A
C558        C559   1.408       .  A
C558        C565   1.506       .  S
C559        C560   1.410       .  A
C559        H564   1.083       .  S
C560        C561   1.419       .  A
C561        C562   1.508       .  S
C562        H566   1.111       .  S
C562        H568   1.110       .  S
C565        H569   1.108       .  S
C565        H570   1.110       .  S
C565        H571   1.110       .  S
C572        C573   1.406       .  A
C572        C577   1.405       .  A
C572        H579   1.083       .  S
C574        C575   1.403       .  A
C574        C581   1.509       .  S
C575        H580   1.083       .  S
C576        C577   1.411       .  A
C577        C578   1.505       .  S
C578        H582   1.110       .  S
C578        H583   1.104       .  S
C578        H584   1.110       .  S
C581        H585   1.111       .  S
C581        H586   1.109       .  S
C581        H587   1.111       .  S
C588        C589   1.407       .  A
C589        C590   1.422       .  A
C590        C591   1.400       .  A
C590        C597   1.509       .  S
C591        C592   1.399       .  A
C591        H596   1.084       .  S
C593        C594   1.508       .  S
C594        H598   1.110       .  S
C594        H600   1.107       .  S
C597        H601   1.109       .  S
C597        H603   1.111       .  S
N604        C605   1.352       .  A
C606        C607   1.373       .  A
C606        H609   1.083       .  S
C607        C608   1.389       .  A
C607        H610   1.078       .  S
C608        C615   1.498       .  S
N611        C615   1.367       .  A
N611        C612   1.353       .  A
N611        C758   1.445       .  S
C612        C613   1.374       .  A
C612        C742   1.476       .  S
C613        C614   1.373       .  A
C613        H616   1.083       .  S
C614        C615   1.390       .  A
C614        H617   1.078       .  S
N618        C622   1.367       .  A
N618        C619   1.354       .  A
N618        C713   1.438       .  S
C619        C620   1.377       .  A
C619        C729   1.485       .  S
C620        C621   1.377       .  A
C620        H623   1.082       .  S
C621        C622   1.390       .  A
C621        H624   1.081       .  S
C622        C629   1.507       .  S
N625        C629   1.367       .  A
N625        C626   1.353       .  A
N625        C694   1.440       .  S
C626        C627   1.373       .  A
C626        C678   1.479       .  S
C627        C628   1.377       .  A
C627        H630   1.081       .  S
C628        C629   1.393       .  A
C628        H631   1.066       .  S
N632        N633   1.323       .  A
N632        N638   1.316       .  A
N632       Mn661   2.214       .  S
N633        C640   1.357       .  A
N634        N636   1.315       .  A
N634        N635   1.320       .  A
N634       Mn650   2.199       .  S
N635        C641   1.354       .  A
N636        N637   1.322       .  A
N637        C641   1.357       .  A
N638        N639   1.322       .  A
N639        C640   1.356       .  A
C640        C726   1.499       .  S
C641        C710   1.495       .  S
N642        N643   1.318       .  A
N642      Mn1275   2.199   1_456  S
N644        N645   1.315       .  A
N644      Mn1253   2.191   1_455  S
N645        C652   1.350       .  A
N646        N647   1.320       .  A
N646      Mn1476   2.205   1_455  S
N648        N649   1.324       .  A
N648      Mn1454   2.227   1_455  S
N649        C651   1.360       .  A
Mn650      N1247   2.201   1_556  S
Mn650      N1452   2.218       .  S
C651        C774   1.501       .  S
C652        C790   1.489       .  S
N653        N654   1.322       .  A
N654        C662   1.356       .  A
N655        N656   1.320       .  A
N655       Mn673   2.204       .  S
N657        N658   1.322       .  A
N657       Mn661   2.221       .  S
N658        C663   1.356       .  A
N659        N660   1.319       .  A
Mn661      Cl674   2.557       .  S
C662        C745   1.493       .  S
C663        C761   1.497       .  S
N664        N665   1.321       .  A
N664        N670   1.315       .  A
N664       Mn672   2.218       .  S
N665        C675   1.356       .  A
N666        N667   1.320       .  A
N666        N668   1.315       .  A
N667        C676   1.354       .  A
N668        N669   1.320       .  A
N669        C676   1.356       .  A
N670        N671   1.322       .  A
N670       Mn673   2.202       .  S
N671        C675   1.355       .  A
Mn672      N1245   2.219       .  S
Mn672      N1450   2.207       .  S
C675        C697   1.493       .  S
C676        C681   1.492       .  S
C677        C678   1.400       .  A
C677        C682   1.408       .  A
C677        H684   1.084       .  S
C678        C679   1.410       .  A
C679        C680   1.400       .  A
C679        C686   1.508       .  S
C680        C681   1.407       .  A
C680        H685   1.084       .  S
C681        C682   1.422       .  A
C682        C683   1.508       .  S
C683        H687   1.111       .  S
C683        H688   1.111       .  S
C683        H689   1.109       .  S
C686        H690   1.111       .  S
C686        H691   1.108       .  S
C686        H692   1.110       .  S
C693        C694   1.400       .  A
C693        C698   1.404       .  A
C693        H700   1.083       .  S
C694        C695   1.408       .  A
C695        C696   1.407       .  A
C695        C702   1.505       .  S
C696        C697   1.410       .  A
C696        H701   1.084       .  S
C697        C698   1.419       .  A
C698        C699   1.508       .  S
C699        H703   1.111       .  S
C699        H704   1.111       .  S
C699        H705   1.109       .  S
C702        H706   1.110       .  S
C702        H707   1.109       .  S
C702        H708   1.111       .  S
C709        C710   1.410       .  A
C709        C714   1.404       .  A
C709        H716   1.083       .  S
C710        C711   1.421       .  A
C711        C712   1.406       .  A
C711        C718   1.505       .  S
C712        C713   1.397       .  A
C712        H717   1.083       .  S
C713        C714   1.411       .  A
C714       C1519   1.506       .  S
C715       C1518   1.505       .  S
C715        H719   1.110       .  S
C715        H720   1.110       .  S
C715       H1525   1.108       .  S
C718        H722   1.109       .  S
C718        H723   1.110       .  S
C718        H724   1.111       .  S
H721       C1519   1.109       .  S
C725        C726   1.409       .  A
C725        C730   1.408       .  A
C725        H732   1.082       .  S
C726        C727   1.421       .  A
C727        C728   1.407       .  A
C727        C734   1.503       .  S
C728        C729   1.399       .  A
C728        H733   1.080       .  S
C729        C730   1.411       .  A
C730        C731   1.507       .  S
C731        H735   1.111       .  S
C731        H736   1.110       .  S
C731        H737   1.110       .  S
C734       H1542   1.109       .  S
C734        H739   1.109       .  S
C734       H1544   1.111       .  S
H738       C1538   1.108       .  S
H740       C1538   1.112       .  S
C741        C742   1.399       .  A
C741        C746   1.405       .  A
C741        H748   1.084       .  S
C742        C743   1.406       .  A
C743        C744   1.402       .  A
C744        C745   1.410       .  A
C745        C746   1.421       .  A
C746        C747   1.506       .  S
C747        H751   1.111       .  S
C747        H752   1.109       .  S
C747        H753   1.109       .  S
C750        H754   1.108       .  S
C750        H756   1.111       .  S
C757        C758   1.401       .  A
C757        C762   1.406       .  A
C757        H764   1.084       .  S
C758        C759   1.412       .  A
C759        C760   1.407       .  A
C759        C766   1.506       .  S
C760        C761   1.410       .  A
C760        H765   1.083       .  S
C761        C762   1.420       .  A
C762        C763   1.507       .  S
C763        H767   1.111       .  S
C763        H769   1.110       .  S
C766        H770   1.108       .  S
C766        H771   1.110       .  S
C766        H772   1.110       .  S
C773        C774   1.407       .  A
C773        C778   1.405       .  A
C773        H780   1.083       .  S
C775        C776   1.403       .  A
C775        C782   1.509       .  S
C776        H781   1.083       .  S
C777        C778   1.410       .  A
C778        C779   1.504       .  S
C779        H783   1.110       .  S
C779        H784   1.105       .  S
C779        H785   1.110       .  S
C782        H786   1.111       .  S
C782        H787   1.109       .  S
C782        H788   1.111       .  S
C789        C790   1.407       .  A
C790        C791   1.422       .  A
C791        C792   1.400       .  A
C791        C798   1.508       .  S
C792        C793   1.397       .  A
C792        H797   1.083       .  S
C794        C795   1.508       .  S
C795        H799   1.110       .  S
C795        H801   1.107       .  S
C798        H802   1.108       .  S
C798        H804   1.111       .  S
N805       C1211   1.364       .  A
N805        C806   1.354       .  A
N805       C1380   1.443       .  S
C806       C1209   1.377       .  A
C806       C1396   1.479       .  S
C807       C1208   1.377       .  A
C807        C808   1.373       .  A
C807        H810   1.083       .  S
C808        C809   1.388       .  A
C808        H811   1.079       .  S
C809       N1207   1.369       .  A
C809        C816   1.499       .  S
N812        C816   1.370       .  A
N812        C813   1.356       .  A
N812        C959   1.449       .  S
C813        C814   1.375       .  A
C813        C943   1.478       .  S
C814        C815   1.372       .  A
C814        H817   1.083       .  S
C815        C816   1.389       .  A
C815        H818   1.078       .  S
N819        C823   1.364       .  A
N819        C820   1.352       .  A
N819        C914   1.438       .  S
C820        C821   1.374       .  A
C820        C930   1.476       .  S
C821        C822   1.376       .  A
C821        H824   1.081       .  S
C822        C823   1.392       .  A
C822        H825   1.075       .  S
C823        C830   1.504       .  S
N826        C830   1.365       .  A
N826        C827   1.353       .  A
N826        C895   1.438       .  S
C827        C828   1.376       .  A
C827        C879   1.481       .  S
C828        C829   1.376       .  A
C828        H831   1.082       .  S
C829        C830   1.392       .  A
C829        H832   1.071       .  S
N833        N834   1.321       .  A
N833        N839   1.316       .  A
N833       Mn862   2.206       .  S
N834        C841   1.356       .  A
N835        N837   1.316       .  A
N835        N836   1.322       .  A
N835       Mn851   2.211       .  S
N836        C842   1.357       .  A
N837        N838   1.320       .  A
N837      Mn1063   2.211       .  S
N838        C842   1.354       .  A
N839        N840   1.319       .  A
N839      Mn1052   2.206   1_554  S
N840        C841   1.353       .  A
C841        C927   1.492       .  S
C842        C911   1.497       .  S
N843       N1251   1.316       .  A
N843        N844   1.319       .  A
N844       C1254   1.353       .  A
N845        N846   1.319       .  A
N845       N1249   1.315       .  A
N846        C853   1.353       .  A
N847       N1247   1.316       .  A
N847        N848   1.322       .  A
N848       C1255   1.356       .  A
N849       N1245   1.316   1_545  A
N849        N850   1.322       .  A
N850        C852   1.358       .  A
Mn851      N1040   2.206       .  S
Mn851     Cl1076   2.554       .  S
C852       N1246   1.356   1_545  A
C852        C975   1.505       .  S
C853       N1250   1.357   1_545  A
C853        C991   1.495       .  S
N854        N855   1.320       .  A
N854       N1262   1.314       .  A
N854      Mn1063   2.205       .  S
N855        C863   1.355       .  A
N856       N1260   1.315       .  A
N856        N857   1.321       .  A
N856       Mn874   2.208       .  S
N857       C1266   1.357       .  A
N858       N1258   1.316       .  A
N858        N859   1.323       .  A
N858       Mn862   2.223       .  S
N859        C864   1.357       .  A
N860       N1256   1.315       .  A
N860        N861   1.318       .  A
N860      Mn1075   2.197       .  S
N861       C1265   1.353       .  A
Mn862      N1038   2.212   1_554  S
Mn862      N1055   2.204   1_554  S
Mn862      Cl875   2.548       .  S
C863       N1263   1.355   1_545  A
C863        C946   1.492       .  S
C864       N1259   1.356   1_545  A
C864        C962   1.498       .  S
N865        N866   1.320       .  A
N865        N871   1.314       .  A
N865       Mn873   2.201       .  S
N866        C876   1.354       .  A
N867        N868   1.321       .  A
N867        N869   1.315       .  A
N867      Mn1075   2.207       .  S
N868        C877   1.354       .  A
N869        N870   1.319       .  A
N869      Mn1074   2.204       .  S
N870        C877   1.355       .  A
N871        N872   1.321       .  A
N871       Mn874   2.205       .  S
N872        C876   1.356       .  A
Mn873      N1070   2.205   1_554  S
Mn873     Cl1277   2.551       .  S
Mn874      N1061   2.198   1_554  S
Mn874      N1068   2.206   1_554  S
Mn874     Cl1277   2.546       .  S
Cl875     Mn1052   2.554   1_554  S
Cl875     Mn1275   2.550   1_545  S
Cl875     Mn1276   2.550   1_545  S
C876        C898   1.492       .  S
C877        C882   1.487       .  S
C878        C879   1.402       .  A
C878        C883   1.407       .  A
C878        H885   1.082       .  S
C879        C880   1.413       .  A
C880        C881   1.400       .  A
C880        C887   1.508   1_655  S
C881        C882   1.405       .  A
C881        H886   1.084       .  S
C882        C883   1.418       .  A
C883        C884   1.508       .  S
C884        H888   1.111       .  S
C884        H889   1.110       .  S
C884        H890   1.109       .  S
C887        H891   1.111       .  S
C887        H892   1.107       .  S
C887        H893   1.110       .  S
C894        C895   1.399       .  A
C894        C899   1.405       .  A
C894        H901   1.084       .  S
C895        C896   1.408       .  A
C896        C897   1.404       .  A
C896        C903   1.506       .  S
C897        C898   1.409       .  A
C897        H902   1.083       .  S
C898        C899   1.422       .  A
C899        C900   1.508   1_655  S
C900        H904   1.111       .  S
C900        H905   1.110   1_455  S
C900        H906   1.110       .  S
C903        H907   1.109       .  S
C903        H908   1.109       .  S
C903        H909   1.111       .  S
C910        C911   1.408       .  A
C910        C915   1.403       .  A
C910        H917   1.083       .  S
C911        C912   1.424       .  A
C912        C913   1.407       .  A
C912        C919   1.506       .  S
C913        C914   1.397       .  A
C913        H918   1.083       .  S
C914        C915   1.411       .  A
C916        H920   1.110       .  S
C916        H921   1.110       .  S
C919        H923   1.110       .  S
C919        H924   1.109       .  S
C919        H925   1.111       .  S
C926        C927   1.409       .  A
C926        C931   1.406       .  A
C926        H933   1.079       .  S
C927        C928   1.420       .  A
C928        C929   1.404       .  A
C928        C935   1.504   1_655  S
C929        C930   1.397       .  A
C929        H934   1.078       .  S
C930        C931   1.408       .  A
C931        C932   1.507       .  S
C932        H936   1.110       .  S
C932        H937   1.110       .  S
C932        H938   1.110       .  S
C935        H940   1.108       .  S
C942        C943   1.399       .  A
C942        C947   1.404       .  A
C942        H949   1.084       .  S
C943        C944   1.407   1_545  A
C944        C945   1.404       .  A
C944       C1353   1.506       .  S
C945        C946   1.409   1_565  A
C945       H1352   1.084       .  S
C946        C947   1.422       .  A
C947        C948   1.507       .  S
C948        H952   1.111       .  S
C948        H953   1.109       .  S
C948        H954   1.110       .  S
H950       C1347   1.084       .  S
C951       C1346   1.509       .  S
C951        H955   1.107       .  S
C951       H1358   1.107       .  S
C951        H957   1.111       .  S
H956       C1353   1.110       .  S
C958        C959   1.403       .  A
C958        C963   1.407       .  A
C958        H965   1.084       .  S
C959        C960   1.414   1_545  A
C960        C961   1.409       .  A
C960        C967   1.506       .  S
C961        C962   1.410   1_565  A
C961        H966   1.084       .  S
C962        C963   1.419       .  A
C963        C964   1.507       .  S
C964        H968   1.111       .  S
C964       H1371   1.109       .  S
C964        H970   1.110       .  S
C967        H971   1.108       .  S
C967        H972   1.110       .  S
C967        H973   1.110       .  S
H969       C1366   1.110       .  S
C974        C975   1.409       .  A
C974        C979   1.406       .  A
C974        H981   1.083       .  S
C975       C1378   1.425   1_545  A
C976       C1377   1.422       .  A
C976        C977   1.405       .  A
C976        C983   1.508       .  S
C977       C1380   1.399       .  A
C977        H982   1.084       .  S
C978       N1207   1.447       .  S
C978       C1379   1.401   1_545  A
C978        C979   1.410       .  A
C979        C980   1.505       .  S
C980        H984   1.111       .  S
C980        H985   1.106       .  S
C980        H986   1.110       .  S
C983        H987   1.110       .  S
C983        H988   1.109       .  S
C983        H989   1.111       .  S
C990        C991   1.409   1_565  A
C990       C1397   1.406       .  A
C990       H1399   1.084       .  S
C991        C992   1.422       .  A
C992        C993   1.404       .  A
C992        C999   1.507       .  S
C993        C994   1.400       .  A
C993        H998   1.084       .  S
C994       C1397   1.412   1_545  A
C994       C1208   1.482       .  S
C995       C1392   1.403       .  A
C995       C1396   1.414       .  A
C995        C996   1.508       .  S
C996       H1000   1.110       .  S
C996       H1403   1.111       .  S
C996       H1002   1.107       .  S
H997       C1392   1.084       .  S
C999       H1003   1.108       .  S
C999       H1406   1.110       .  S
C999       H1005   1.111       .  S
H1001      C1398   1.110       .  S
H1004      C1401   1.109       .  S
N1006      C1412   1.365       .  A
N1006      C1007   1.355       .  A
N1006      C1581   1.444       .  S
C1007      C1410   1.377       .  A
C1007      C1597   1.480       .  S
C1008      C1409   1.377       .  A
C1008      C1009   1.373       .  A
C1008      H1011   1.083       .  S
C1009      C1010   1.388       .  A
C1009      H1012   1.079       .  S
C1010      N1408   1.369       .  A
C1010      C1017   1.499       .  S
N1013      C1017   1.371       .  A
N1013      C1014   1.356       .  A
N1013      C1160   1.449       .  S
C1014      C1015   1.375       .  A
C1014      C1144   1.478       .  S
C1015      C1016   1.372       .  A
C1015      H1018   1.083       .  S
C1016      C1017   1.389       .  A
C1016      H1019   1.078       .  S
N1020      C1024   1.364       .  A
N1020      C1021   1.352       .  A
N1020      C1115   1.438       .  S
C1021      C1022   1.374       .  A
C1021      C1131   1.475       .  S
C1022      C1023   1.375       .  A
C1022      H1025   1.081       .  S
C1023      C1024   1.392       .  A
C1023      H1026   1.075       .  S
C1024      C1031   1.504       .  S
N1027      C1031   1.365       .  A
N1027      C1028   1.353       .  A
N1027      C1096   1.438       .  S
C1028      C1029   1.376       .  A
C1028      C1080   1.481       .  S
C1029      C1030   1.376       .  A
C1029      H1032   1.082       .  S
C1030      C1031   1.392       .  A
C1030      H1033   1.071       .  S
N1034      N1035   1.321       .  A
N1034      N1040   1.316       .  A
N1034     Mn1063   2.206       .  S
N1035      C1042   1.356       .  A
N1036      N1038   1.316       .  A
N1036      N1037   1.322       .  A
N1036     Mn1052   2.210       .  S
N1037      C1043   1.357       .  A
N1038      N1039   1.320       .  A
N1039      C1043   1.354       .  A
N1040      N1041   1.319       .  A
N1041      C1042   1.353       .  A
C1042      C1128   1.492       .  S
C1043      C1112   1.498       .  S
N1044      N1452   1.316       .  A
N1044      N1045   1.320       .  A
N1045      C1455   1.354       .  A
N1046      N1047   1.319       .  A
N1046      N1450   1.315   1_545  A
N1047      C1054   1.353       .  A
N1048      N1448   1.316       .  A
N1048      N1049   1.322       .  A
N1049      C1456   1.356       .  A
N1050      N1446   1.316   1_545  A
N1050      N1051   1.322       .  A
N1051      C1053   1.358       .  A
C1053      N1447   1.356   1_545  A
C1053      C1176   1.505       .  S
C1054      N1451   1.357   1_545  A
C1054      C1192   1.495       .  S
N1055      N1056   1.320       .  A
N1055      N1463   1.314       .  A
N1056      C1064   1.354       .  A
N1057      N1461   1.315       .  A
N1057      N1058   1.321       .  A
N1057     Mn1075   2.210       .  S
N1058      C1467   1.357       .  A
N1059      N1459   1.316       .  A
N1059      N1060   1.323       .  A
N1059     Mn1063   2.223       .  S
N1060      C1065   1.357       .  A
N1061      N1457   1.315       .  A
N1061      N1062   1.318       .  A
N1062      C1466   1.353       .  A
Mn1063    Cl1076   2.549       .  S
C1064      N1464   1.355   1_545  A
C1064      C1147   1.492       .  S
C1065      N1460   1.356   1_545  A
C1065      C1163   1.498       .  S
N1066      N1067   1.320       .  A
N1066      N1072   1.314       .  A
N1066     Mn1074   2.203       .  S
N1067      C1077   1.354       .  A
N1068      N1069   1.321       .  A
N1068      N1070   1.315       .  A
N1069      C1078   1.355       .  A
N1070      N1071   1.319       .  A
N1071      C1078   1.355       .  A
N1072      N1073   1.321       .  A
N1072     Mn1075   2.205       .  S
N1073      C1077   1.356       .  A
Mn1074    Cl1478   2.552       .  S
Mn1075    Cl1478   2.547       .  S
Cl1076    Mn1476   2.550   1_545  S
Cl1076    Mn1477   2.549   1_545  S
C1077      C1099   1.492       .  S
C1078      C1083   1.487       .  S
C1079      C1080   1.402       .  A
C1079      C1084   1.407       .  A
C1079      H1086   1.082       .  S
C1080      C1081   1.412       .  A
C1081      C1082   1.400       .  A
C1081      C1088   1.508   1_655  S
C1082      C1083   1.405       .  A
C1082      H1087   1.084       .  S
C1083      C1084   1.418       .  A
C1084      C1085   1.507       .  S
C1085      H1089   1.111       .  S
C1085      H1090   1.110       .  S
C1085      H1091   1.109       .  S
C1088      H1092   1.111       .  S
C1088      H1093   1.107       .  S
C1088      H1094   1.110       .  S
C1095      C1096   1.399       .  A
C1095      C1100   1.405       .  A
C1095      H1102   1.084       .  S
C1096      C1097   1.408       .  A
C1097      C1098   1.404       .  A
C1097      C1104   1.506       .  S
C1098      C1099   1.409       .  A
C1098      H1103   1.083       .  S
C1099      C1100   1.422       .  A
C1100      C1101   1.508   1_655  S
C1101      H1105   1.111       .  S
C1101      H1106   1.110   1_455  S
C1101      H1107   1.109       .  S
C1104      H1108   1.109       .  S
C1104      H1109   1.109       .  S
C1104      H1110   1.111       .  S
C1111      C1112   1.409       .  A
C1111      C1116   1.403       .  A
C1111      H1118   1.083       .  S
C1112      C1113   1.424       .  A
C1113      C1114   1.407       .  A
C1113      C1120   1.506       .  S
C1114      C1115   1.397       .  A
C1114      H1119   1.083       .  S
C1115      C1116   1.411       .  A
C1117      H1121   1.110       .  S
C1117      H1122   1.110       .  S
C1120      H1124   1.110       .  S
C1120      H1125   1.110       .  S
C1120      H1126   1.111       .  S
C1127      C1128   1.409       .  A
C1127      C1132   1.406       .  A
C1127      H1134   1.079       .  S
C1128      C1129   1.420       .  A
C1129      C1130   1.404       .  A
C1129      C1136   1.504   1_655  S
C1130      C1131   1.397       .  A
C1130      H1135   1.078       .  S
C1131      C1132   1.408       .  A
C1132      C1133   1.507       .  S
C1133      H1137   1.110       .  S
C1133      H1138   1.110       .  S
C1133      H1139   1.110       .  S
C1136      H1141   1.108       .  S
C1143      C1144   1.399       .  A
C1143      C1148   1.404       .  A
C1143      H1150   1.084       .  S
C1144      C1145   1.407   1_545  A
C1145      C1146   1.404       .  A
C1145      C1554   1.506       .  S
C1146      C1147   1.409   1_565  A
C1146      H1553   1.084       .  S
C1147      C1148   1.422       .  A
C1148      C1149   1.507       .  S
C1149      H1153   1.111       .  S
C1149      H1154   1.109       .  S
C1149      H1155   1.110       .  S
H1151      C1548   1.084       .  S
C1152      C1547   1.509       .  S
C1152      H1156   1.107       .  S
C1152      H1559   1.107       .  S
C1152      H1158   1.111       .  S
H1157      C1554   1.110       .  S
C1159      C1160   1.403       .  A
C1159      C1164   1.407       .  A
C1159      H1166   1.084       .  S
C1160      C1161   1.414   1_545  A
C1161      C1162   1.409       .  A
C1161      C1168   1.506       .  S
C1162      C1163   1.410   1_565  A
C1162      H1167   1.084       .  S
C1163      C1164   1.419       .  A
C1164      C1165   1.507       .  S
C1165      H1169   1.111       .  S
C1165      H1572   1.109       .  S
C1165      H1171   1.110       .  S
C1168      H1172   1.108       .  S
C1168      H1173   1.110       .  S
C1168      H1174   1.110       .  S
H1170      C1567   1.110       .  S
C1175      C1176   1.409       .  A
C1175      C1180   1.406       .  A
C1175      H1182   1.083       .  S
C1176      C1579   1.425   1_545  A
C1177      C1578   1.422       .  A
C1177      C1178   1.405       .  A
C1177      C1184   1.508       .  S
C1178      C1581   1.399       .  A
C1178      H1183   1.084       .  S
C1179      N1408   1.447       .  S
C1179      C1580   1.401   1_545  A
C1179      C1180   1.410       .  A
C1180      C1181   1.505       .  S
C1181      H1185   1.111       .  S
C1181      H1186   1.106       .  S
C1181      H1187   1.110       .  S
C1184      H1188   1.110       .  S
C1184      H1189   1.109       .  S
C1184      H1190   1.111       .  S
C1191      C1192   1.409   1_565  A
C1191      C1598   1.406       .  A
C1191      H1600   1.084       .  S
C1192      C1193   1.422       .  A
C1193      C1194   1.404       .  A
C1193      C1200   1.507       .  S
C1194      C1195   1.400       .  A
C1194      H1199   1.084       .  S
C1195      C1598   1.412   1_545  A
C1195      C1409   1.482       .  S
C1196      C1593   1.403       .  A
C1196      C1597   1.414       .  A
C1196      C1197   1.508       .  S
C1197      H1201   1.110       .  S
C1197      H1604   1.111       .  S
C1197      H1203   1.107       .  S
H1198      C1593   1.084       .  S
C1200      H1204   1.108       .  S
C1200      H1607   1.110       .  S
C1200      H1206   1.111       .  S
H1202      C1599   1.110       .  S
H1205      C1602   1.109       .  S
N1207      C1208   1.357       .  A
C1209      C1210   1.375       .  A
C1209      H1212   1.082       .  S
C1210      C1211   1.390       .  A
C1210      H1213   1.076       .  S
C1211      C1218   1.497       .  S
N1214      C1218   1.363       .  A
N1214      C1215   1.355       .  A
N1214      C1361   1.441       .  S
C1215      C1216   1.378       .  A
C1215      C1345   1.482       .  S
C1216      C1217   1.374       .  A
C1216      H1219   1.082       .  S
C1217      C1218   1.388       .  A
C1217      H1220   1.079       .  S
N1221      C1225   1.369       .  A
N1221      C1222   1.355       .  A
N1221      C1316   1.441       .  S
C1222      C1223   1.374       .  A
C1222      C1332   1.482       .  S
C1223      C1224   1.373       .  A
C1223      H1226   1.082       .  S
C1224      C1225   1.392       .  A
C1224      H1227   1.071       .  S
C1225      C1232   1.508       .  S
N1228      C1232   1.368       .  A
N1228      C1229   1.353       .  A
N1228      C1297   1.438       .  S
C1229      C1230   1.375       .  A
C1229      C1281   1.482       .  S
C1230      C1231   1.378       .  A
C1230      H1233   1.082       .  S
C1231      C1232   1.392       .  A
C1231      H1234   1.076       .  S
N1235      N1236   1.320       .  A
N1235      N1241   1.315       .  A
N1235     Mn1264   2.200       .  S
N1236      C1243   1.354       .  A
N1237      N1239   1.316       .  A
N1237      N1238   1.321       .  A
N1237     Mn1253   2.209       .  S
N1238      C1244   1.356       .  A
N1239      N1240   1.322       .  A
N1239     Mn1465   2.216       .  S
N1240      C1244   1.355       .  A
N1241      N1242   1.322       .  A
N1241     Mn1454   2.213   1_554  S
N1242      C1243   1.356       .  A
C1243      C1329   1.489       .  S
C1244      C1313   1.498       .  S
N1245      N1246   1.323       .  A
N1247      N1248   1.319       .  A
N1248      C1255   1.353       .  A
N1249      N1250   1.322   1_545  A
N1251      N1252   1.324       .  A
N1252      C1254   1.358       .  A
Mn1253     N1442   2.212       .  S
Mn1253    Cl1478   2.546       .  S
C1254      C1377   1.497       .  S
C1255      C1393   1.490       .  S
N1256      N1257   1.322       .  A
N1256     Mn1465   2.205       .  S
N1257      C1265   1.355       .  A
N1258      N1259   1.323   1_545  A
N1258     Mn1276   2.211   1_545  S
N1260      N1261   1.322       .  A
N1260     Mn1264   2.211       .  S
N1261      C1266   1.355       .  A
N1262      N1263   1.320   1_545  A
N1262     Mn1477   2.197   1_545  S
Mn1264     N1440   2.215   1_554  S
Mn1264     N1457   2.206   1_554  S
Mn1264    Cl1277   2.553       .  S
C1265      C1348   1.486       .  S
C1266      C1364   1.497       .  S
N1267      N1268   1.320       .  A
N1267      N1273   1.315       .  A
N1267     Mn1275   2.204       .  S
N1268      C1278   1.354       .  A
N1269      N1270   1.318       .  A
N1269      N1271   1.314       .  A
N1269     Mn1477   2.203       .  S
N1270      C1279   1.353       .  A
N1271      N1272   1.323       .  A
N1271     Mn1476   2.210       .  S
N1272      C1279   1.358       .  A
N1273      N1274   1.321       .  A
N1273     Mn1276   2.207       .  S
N1274      C1278   1.357       .  A
Mn1275     N1472   2.211   1_554  S
Mn1276     N1463   2.199   1_564  S
Mn1276     N1470   2.202   1_554  S
Cl1277    Mn1454   2.547   1_554  S
C1278      C1300   1.495       .  S
C1279      C1284   1.496       .  S
C1280      C1281   1.398       .  A
C1280      C1285   1.405       .  A
C1280      H1287   1.082       .  S
C1281      C1282   1.412       .  A
C1282      C1283   1.405       .  A
C1282      C1289   1.507       .  S
C1283      C1284   1.408       .  A
C1283      H1288   1.084       .  S
C1284      C1285   1.423       .  A
C1285      C1286   1.509       .  S
C1286      H1290   1.111       .  S
C1286      H1291   1.111       .  S
C1286      H1292   1.109       .  S
C1289      H1293   1.111   1_655  S
C1289      H1294   1.108       .  S
C1289      H1295   1.110       .  S
C1296      C1297   1.398       .  A
C1296      C1301   1.407       .  A
C1296      H1303   1.083       .  S
C1297      C1298   1.408       .  A
C1298      C1299   1.403       .  A
C1298      C1305   1.505       .  S
C1299      C1300   1.409       .  A
C1299      H1304   1.083       .  S
C1300      C1301   1.424       .  A
C1301      C1302   1.507       .  S
C1302      H1306   1.111   1_655  S
C1302      H1307   1.110       .  S
C1302      H1308   1.110   1_655  S
C1305      H1309   1.107       .  S
C1305      H1310   1.110       .  S
C1305      H1311   1.111       .  S
C1312      C1313   1.410       .  A
C1312      C1317   1.404       .  A
C1312      H1319   1.083       .  S
C1313      C1314   1.422       .  A
C1314      C1315   1.408       .  A
C1314      C1321   1.507       .  S
C1315      C1316   1.400       .  A
C1315      H1320   1.083       .  S
C1316      C1317   1.410       .  A
C1318      H1322   1.110       .  S
C1318      H1323   1.110       .  S
C1321      H1325   1.110       .  S
C1321      H1326   1.110       .  S
C1321      H1327   1.111       .  S
C1328      C1329   1.405       .  A
C1328      C1333   1.402       .  A
C1328      H1335   1.085       .  S
C1329      C1330   1.420       .  A
C1330      C1331   1.407       .  A
C1330      C1337   1.506       .  S
C1331      C1332   1.400       .  A
C1331      H1336   1.091       .  S
C1332      C1333   1.412       .  A
C1333      C1334   1.508       .  S
C1334      H1338   1.111       .  S
C1334      H1339   1.109       .  S
C1334      H1340   1.110       .  S
C1337      H1342   1.110       .  S
C1344      C1345   1.403       .  A
C1344      C1349   1.407       .  A
C1344      H1351   1.082       .  S
C1345      C1346   1.413       .  A
C1346      C1347   1.400       .  A
C1347      C1348   1.405       .  A
C1348      C1349   1.417       .  A
C1349      C1350   1.507       .  S
C1350      H1354   1.111       .  S
C1350      H1355   1.110       .  S
C1350      H1356   1.110       .  S
C1353      H1357   1.108       .  S
C1353      H1359   1.111       .  S
C1360      C1361   1.399       .  A
C1360      C1365   1.409       .  A
C1360      H1367   1.083       .  S
C1361      C1362   1.410       .  A
C1362      C1363   1.402       .  A
C1362      C1369   1.505       .  S
C1363      C1364   1.408       .  A
C1363      H1368   1.083       .  S
C1364      C1365   1.424       .  A
C1365      C1366   1.507       .  S
C1366      H1370   1.111       .  S
C1366      H1372   1.110       .  S
C1369      H1373   1.107       .  S
C1369      H1374   1.110       .  S
C1369      H1375   1.110       .  S
C1376      C1377   1.410       .  A
C1376      C1381   1.409       .  A
C1376      H1383   1.083       .  S
C1378      C1379   1.412       .  A
C1378      C1385   1.506       .  S
C1379      H1384   1.083       .  S
C1380      C1381   1.410       .  A
C1381      C1382   1.506       .  S
C1382      H1386   1.111       .  S
C1382      H1387   1.110       .  S
C1382      H1388   1.108       .  S
C1385      H1389   1.110       .  S
C1385      H1390   1.110       .  S
C1385      H1391   1.111       .  S
C1392      C1393   1.406       .  A
C1393      C1394   1.420       .  A
C1394      C1395   1.402       .  A
C1394      C1401   1.503       .  S
C1395      C1396   1.398       .  A
C1395      H1400   1.084       .  S
C1397      C1398   1.507       .  S
C1398      H1402   1.110       .  S
C1398      H1404   1.107       .  S
C1401      H1405   1.109       .  S
C1401      H1407   1.111       .  S
N1408      C1409   1.357       .  A
C1410      C1411   1.375       .  A
C1410      H1413   1.082       .  S
C1411      C1412   1.389       .  A
C1411      H1414   1.076       .  S
C1412      C1419   1.498       .  S
N1415      C1419   1.363       .  A
N1415      C1416   1.356       .  A
N1415      C1562   1.441       .  S
C1416      C1417   1.378       .  A
C1416      C1546   1.482       .  S
C1417      C1418   1.373       .  A
C1417      H1420   1.082       .  S
C1418      C1419   1.388       .  A
C1418      H1421   1.079       .  S
N1422      C1426   1.368       .  A
N1422      C1423   1.354       .  A
N1422      C1517   1.441       .  S
C1423      C1424   1.374       .  A
C1423      C1533   1.481       .  S
C1424      C1425   1.373       .  A
C1424      H1427   1.082       .  S
C1425      C1426   1.392       .  A
C1425      H1428   1.071       .  S
C1426      C1433   1.507       .  S
N1429      C1433   1.367       .  A
N1429      C1430   1.352       .  A
N1429      C1498   1.438       .  S
C1430      C1431   1.375       .  A
C1430      C1482   1.482       .  S
C1431      C1432   1.378       .  A
C1431      H1434   1.082       .  S
C1432      C1433   1.392       .  A
C1432      H1435   1.076       .  S
N1436      N1437   1.320       .  A
N1436      N1442   1.314       .  A
N1436     Mn1465   2.200       .  S
N1437      C1444   1.354       .  A
N1438      N1440   1.316       .  A
N1438      N1439   1.321       .  A
N1438     Mn1454   2.208       .  S
N1439      C1445   1.356       .  A
N1440      N1441   1.321       .  A
N1441      C1445   1.355       .  A
N1442      N1443   1.322       .  A
N1443      C1444   1.356       .  A
C1444      C1530   1.490       .  S
C1445      C1514   1.497       .  S
N1446      N1447   1.323       .  A
N1448      N1449   1.319       .  A
N1449      C1456   1.352       .  A
N1450      N1451   1.322       .  A
N1452      N1453   1.324       .  A
N1453      C1455   1.358       .  A
C1455      C1578   1.497       .  S
C1456      C1594   1.489       .  S
N1457      N1458   1.322       .  A
N1458      C1466   1.356       .  A
N1459      N1460   1.323   1_545  A
N1459     Mn1477   2.211   1_545  S
N1461      N1462   1.321       .  A
N1461     Mn1465   2.211       .  S
N1462      C1467   1.355       .  A
N1463      N1464   1.320   1_545  A
Mn1465    Cl1478   2.552       .  S
C1466      C1549   1.487       .  S
C1467      C1565   1.498       .  S
N1468      N1469   1.321       .  A
N1468      N1474   1.314       .  A
N1468     Mn1476   2.204       .  S
N1469      C1479   1.354       .  A
N1470      N1471   1.318       .  A
N1470      N1472   1.314       .  A
N1471      C1480   1.352       .  A
N1472      N1473   1.323       .  A
N1473      C1480   1.359       .  A
N1474      N1475   1.320       .  A
N1474     Mn1477   2.205       .  S
N1475      C1479   1.356       .  A
C1479      C1501   1.495       .  S
C1480      C1485   1.495       .  S
C1481      C1482   1.398       .  A
C1481      C1486   1.405       .  A
C1481      H1488   1.082       .  S
C1482      C1483   1.412       .  A
C1483      C1484   1.405       .  A
C1483      C1490   1.507       .  S
C1484      C1485   1.408       .  A
C1484      H1489   1.084       .  S
C1485      C1486   1.423       .  A
C1486      C1487   1.509       .  S
C1487      H1491   1.111       .  S
C1487      H1492   1.111       .  S
C1487      H1493   1.109       .  S
C1490      H1494   1.111   1_655  S
C1490      H1495   1.108       .  S
C1490      H1496   1.110       .  S
C1497      C1498   1.398       .  A
C1497      C1502   1.407       .  A
C1497      H1504   1.083       .  S
C1498      C1499   1.408       .  A
C1499      C1500   1.403       .  A
C1499      C1506   1.506       .  S
C1500      C1501   1.409       .  A
C1500      H1505   1.083       .  S
C1501      C1502   1.424       .  A
C1502      C1503   1.507       .  S
C1503      H1507   1.111   1_655  S
C1503      H1508   1.110       .  S
C1503      H1509   1.110       .  S
C1506      H1510   1.106       .  S
C1506      H1511   1.110       .  S
C1506      H1512   1.111       .  S
C1513      C1514   1.410       .  A
C1513      C1518   1.405       .  A
C1513      H1520   1.083       .  S
C1514      C1515   1.422       .  A
C1515      C1516   1.407       .  A
C1515      C1522   1.507       .  S
C1516      C1517   1.400       .  A
C1516      H1521   1.083       .  S
C1517      C1518   1.410       .  A
C1519      H1523   1.110       .  S
C1519      H1524   1.110       .  S
C1522      H1526   1.110       .  S
C1522      H1527   1.110       .  S
C1522      H1528   1.111       .  S
C1529      C1530   1.406       .  A
C1529      C1534   1.402       .  A
C1529      H1536   1.085       .  S
C1530      C1531   1.420       .  A
C1531      C1532   1.406       .  A
C1531      C1538   1.505       .  S
C1532      C1533   1.399       .  A
C1532      H1537   1.091       .  S
C1533      C1534   1.411       .  A
C1534      C1535   1.508       .  S
C1535      H1539   1.111       .  S
C1535      H1540   1.109       .  S
C1535      H1541   1.110       .  S
C1538      H1543   1.110       .  S
C1545      C1546   1.403       .  A
C1545      C1550   1.407       .  A
C1545      H1552   1.082       .  S
C1546      C1547   1.413       .  A
C1547      C1548   1.400       .  A
C1548      C1549   1.405       .  A
C1549      C1550   1.417       .  A
C1550      C1551   1.507       .  S
C1551      H1555   1.111       .  S
C1551      H1556   1.110       .  S
C1551      H1557   1.110       .  S
C1554      H1558   1.108       .  S
C1554      H1560   1.111       .  S
C1561      C1562   1.399       .  A
C1561      C1566   1.409       .  A
C1561      H1568   1.083       .  S
C1562      C1563   1.410       .  A
C1563      C1564   1.402       .  A
C1563      C1570   1.505       .  S
C1564      C1565   1.408       .  A
C1564      H1569   1.083       .  S
C1565      C1566   1.424       .  A
C1566      C1567   1.507       .  S
C1567      H1571   1.111       .  S
C1567      H1573   1.110       .  S
C1570      H1574   1.107       .  S
C1570      H1575   1.110       .  S
C1570      H1576   1.110       .  S
C1577      C1578   1.410       .  A
C1577      C1582   1.409       .  A
C1577      H1584   1.083       .  S
C1579      C1580   1.412       .  A
C1579      C1586   1.506       .  S
C1580      H1585   1.083       .  S
C1581      C1582   1.410       .  A
C1582      C1583   1.506       .  S
C1583      H1587   1.111       .  S
C1583      H1588   1.110       .  S
C1583      H1589   1.108       .  S
C1586      H1590   1.110       .  S
C1586      H1591   1.110       .  S
C1586      H1592   1.111       .  S
C1593      C1594   1.405       .  A
C1594      C1595   1.419       .  A
C1595      C1596   1.403       .  A
C1595      C1602   1.504       .  S
C1596      C1597   1.398       .  A
C1596      H1601   1.084       .  S
C1598      C1599   1.507       .  S
C1599      H1603   1.110       .  S
C1599      H1605   1.107       .  S
C1602      H1606   1.109       .  S
C1602      H1608   1.111       .  S
