geometry optimzed in LAMMPS
_audit_creation_date              2020-11-30 
_audit_creation_method            'lammps2cif' 
_symmetry_space_group_name_H-M    'P1' 
_symmetry_Int_Tables_number       1 
_symmetry_cell_setting            triclinic 
loop_ 
_symmetry_equiv_pos_as_xyz 
  x,y,z 
_cell_length_a                    28.90225606429945 
_cell_length_b                    29.94187820533863 
_cell_length_c                    24.40098893571635 
_cell_angle_alpha                 91.1552243219081 
_cell_angle_beta                  89.65380256562648 
_cell_angle_gamma                 119.06889088820988 
loop_ 
_atom_site_label 
_atom_site_type_symbol 
_atom_site_fract_x 
_atom_site_fract_y 
_atom_site_fract_z 
_atom_site_charge 
C1          C  0.77601293  0.50069137  0.01463046     0.00040
C2          C  0.73057331  0.50110951  0.49812621     0.00040
C3          C  0.48898297  0.20166943  0.50148459     0.00040
C4          C  0.48543836  0.24581277  0.49678442     0.00040
C5          C  0.73128787  0.16482983  0.49728272     0.00040
C6          C  0.77803831  0.20969369  0.00712547     0.00040
C7          C  0.52353832  0.76580178  0.49915010     0.00040
C8          C  0.51745737  0.71723061  0.49696381     0.00040
C9          C  0.18721237  0.41977513  0.98838893     0.00040
C10         C  0.23675854  0.42890028  0.50321169     0.00040
C11         C  0.22567531  0.75160261  0.49898403     0.00040
C12         C  0.18738527  0.70156325  0.99085031     0.00040
O13         O  0.93022214  0.36510078  0.32619194    -0.80660
O14         O  0.01266576  0.45723406  0.12793920    -0.80680
O15         O  0.87695839  0.36976246  0.21810933    -0.80690
O16         O  0.09789785  0.48729089  0.28674733    -0.80630
O17         O  0.90924225  0.40898368  0.14291504    -0.80750
O18         O  0.03625663  0.41187875  0.30856279    -0.80670
O19         O  0.05768992  0.44754430  0.19152056    -0.80660
O20         O  0.86835502  0.38666896  0.31908200    -0.80700
C21         C  0.88385244  0.35643208  0.33671375     1.09030
C22         C  0.04624590  0.44453652  0.14186211     1.08920
C23         C  0.87985392  0.36823191  0.16724586     1.09050
C24         C  0.08477071  0.44405576  0.30723180     1.08930
O25         O  0.04659209  0.50709195  0.35613223    -0.80660
O26         O  0.91379165  0.49909529  0.20050106    -0.80740
O27         O  0.92325323  0.49705160  0.30646631    -0.80670
O28         O  0.10471054  0.55079979  0.19980518    -0.80650
O29         O  0.02920138  0.55015334  0.18097594    -0.80700
O30         O  0.94082056  0.45939578  0.37191394    -0.80670
O31         O  0.04493263  0.54999668  0.28585618    -0.80630
O32         O  0.84107858  0.43760694  0.23818279    -0.80700
Co33       Co  0.98782463  0.43617827  0.33492483     1.51530
Co34       Co  0.96685057  0.47572822  0.17337725     1.51690
Co35       Co  0.90367141  0.43574003  0.25792678     1.51570
Co36       Co  0.04793575  0.49764852  0.23681406     1.51470
O37         O  0.97604552  0.44668689  0.25397733    -1.42590
C38         C  0.05808652  0.54952542  0.33475305     1.08960
C39         C  0.86280247  0.47570862  0.20653396     1.09050
C40         C  0.92284384  0.48839147  0.35688625     1.08990
C41         C  0.07962508  0.56812696  0.17265633     1.08960
O42         O  0.47956523  0.43034088  0.13039374    -0.80660
O43         O  0.44635443  0.47913701  0.36504737    -0.80680
O44         O  0.45419803  0.37338244  0.30418316    -0.80690
O45         O  0.37600127  0.49643498  0.22461361    -0.80630
O46         O  0.50386660  0.43053590  0.36591049    -0.80750
O47         O  0.40285674  0.45253345  0.17149053    -0.80670
O48         O  0.39033431  0.43700878  0.29782931    -0.80660
O49         O  0.44481970  0.37565397  0.19474229    -0.80700
C50         C  0.45625883  0.38433030  0.14498222     1.09030
C51         C  0.39915977  0.45012662  0.34798328     1.08920
C52         C  0.47303283  0.38400653  0.35173920     1.09050
C53         C  0.36678852  0.46469277  0.18567443     1.08930
O54         O  0.48872594  0.52351429  0.11518917    -0.80660
O55         O  0.58821426  0.51498813  0.30677438    -0.80740
O56         O  0.55954869  0.44383339  0.18749558    -0.80670
O57         O  0.45021520  0.54567203  0.30225776    -0.80650
O58         O  0.53272506  0.56706441  0.31191207    -0.80700
O59         O  0.56498518  0.51956232  0.17715009    -0.80670
O60         O  0.47935785  0.55425727  0.19546342    -0.80630
O61         O  0.57037840  0.43590945  0.29710188    -0.80700
Co62       Co  0.48658947  0.48841262  0.17934936     1.51530
Co63       Co  0.51723587  0.49751584  0.33274303     1.51690
Co64       Co  0.50522614  0.40965654  0.24621097     1.51570
Co65       Co  0.43546861  0.49069282  0.24599610     1.51470
O66         O  0.49021821  0.46895965  0.25679827    -1.42590
C67         C  0.48956557  0.55977041  0.14341800     1.08960
C68         C  0.60191308  0.48160460  0.31360812     1.09050
C69         C  0.58295901  0.48889138  0.16852028     1.08990
C70         C  0.49593110  0.57757508  0.31946593     1.08960
O71         O  0.51694228  0.00971732  0.12984426    -0.80660
O72         O  0.51240454  0.90296470  0.31021667    -0.80680
O73         O  0.58538159  0.08767471  0.27991144    -0.80690
O74         O  0.50209444  0.89854667  0.20892819    -0.80630
O75         O  0.57637478  0.01317376  0.30354608    -0.80750
O76         O  0.46470261  0.90671504  0.13495075    -0.80670
O77         O  0.43704034  0.83419636  0.28759809    -0.80660
O78         O  0.57077091  0.02057953  0.19659036    -0.80700
C79         C  0.56375114  0.02716210  0.14673034     1.09030
C80         C  0.47994642  0.85471997  0.31474681     1.08920
C81         C  0.60147561  0.06238649  0.30815365     1.09050
C82         C  0.49435903  0.89220585  0.15803769     1.08930
O83         O  0.37159088  0.91174365  0.17546952    -0.80660
O84         O  0.49254075  0.01965473  0.36328820    -0.80740
O85         O  0.51101322  0.07349771  0.19637687    -0.80670
O86         O  0.37934386  0.88319949  0.29619411    -0.80650
O87         O  0.43257602  0.91902967  0.36343937    -0.80700
O88         O  0.42979247  0.01853285  0.17057769    -0.80670
O89         O  0.38934681  0.85186811  0.19814299    -0.80630
O90         O  0.47837913  0.05250510  0.29292517    -0.80700
Co91       Co  0.44622941  0.96137073  0.15929539     1.51530
Co92       Co  0.49929799  0.96383826  0.32414989     1.51690
Co93       Co  0.52328552  0.03172019  0.24973677     1.51570
Co94       Co  0.44294481  0.89375586  0.25504762     1.51470
O95         O  0.46334261  0.96422461  0.24246950    -1.42590
C96         C  0.35871498  0.86495334  0.17535350     1.08960
C97         C  0.47890659  0.04977511  0.34365680     1.09050
C98         C  0.46831046  0.06394510  0.17210809     1.08990
C99         C  0.38632992  0.88985628  0.34677935     1.08960
C100        C  0.29002291  0.83342309  0.37028952    -0.20830
C101        C  0.34374201  0.85877025  0.38646940    -0.07390
C102        C  0.35661114  0.84968568  0.43951197     0.13480
C103        C  0.31762621  0.81092179  0.47031135    -0.20880
C104        C  0.26352455  0.78622472  0.45593455    -0.07400
C105        C  0.24953936  0.80039019  0.40610088     0.13460
C106        C  0.19341126  0.78544889  0.39142233    -0.24230
H107        H  0.27928172  0.84152771  0.33069317     0.14750
H108        H  0.33020497  0.80160887  0.50785985     0.14780
C109        C  0.41070311  0.88089350  0.46585792    -0.24180
H110        H  0.19097016  0.82008462  0.38054026     0.04990
H111        H  0.16617392  0.76832248  0.42628260     0.08220
H112        H  0.18024539  0.75850035  0.35570995     0.08220
H113        H  0.42105495  0.92178443  0.46787658     0.08200
H114        H  0.44152877  0.87674533  0.44289363     0.08200
H115        H  0.41182918  0.86925184  0.50857002     0.04980
C116        C  0.26912412  0.75067202  0.08575781    -0.20830
C117        C  0.24237405  0.77098624  0.05654798    -0.07390
C118        C  0.24475584  0.81680510  0.07544090     0.13480
C119        C  0.27910516  0.84430890  0.11890180    -0.20880
C120        C  0.31209373  0.82749999  0.14279760    -0.07400
C121        C  0.30426996  0.77818613  0.12804586     0.13460
C122        C  0.33732392  0.75637165  0.15029142    -0.24230
H123        H  0.26937031  0.71702419  0.06974422     0.14750
H124        H  0.28315116  0.88103352  0.13112530     0.14780
C125        C  0.21324321  0.83787782  0.04777758    -0.24180
H126        H  0.32309614  0.71627480  0.13613569     0.04990
H127        H  0.33612522  0.75626421  0.19577133     0.08220
H128        H  0.37813873  0.77928894  0.13467567     0.08220
H129        H  0.17052923  0.80917781  0.04872729     0.08200
H130        H  0.22590482  0.84701816  0.00458490     0.08200
H131        H  0.21858368  0.87341973  0.06857201     0.04980
C132        C  0.14808618  0.61593428  0.36367940    -0.20830
C133        C  0.09334128  0.59795884  0.36452117    -0.07390
C134        C  0.07379194  0.62461573  0.39658216     0.13480
C135        C  0.10815751  0.66407018  0.43209480    -0.20880
C136        C  0.16180125  0.67729331  0.43726635    -0.07400
C137        C  0.18281674  0.65532532  0.39950071     0.13460
C138        C  0.24078402  0.67133984  0.39585072    -0.24230
H139        H  0.16365804  0.59805228  0.33597471     0.14750
H140        H  0.09197693  0.68190980  0.45941194     0.14780
C141        C  0.01624172  0.60940697  0.39630391    -0.24180
H142        H  0.25526532  0.68555342  0.35411506     0.04990
H143        H  0.24676142  0.63800637  0.90324471     0.08220
H144        H  0.26521831  0.70217672  0.92548863     0.08220
H145        H  0.99417729  0.57110745  0.41420631     0.08200
H146        H  0.00297128  0.60894968  0.35364186     0.08200
H147        H  0.00784993  0.63605585  0.42129446     0.04980
C148        C  0.14952788  0.60259486  0.10306251    -0.20830
C149        C  0.10850107  0.60644346  0.12991886    -0.07390
C150        C  0.09457426  0.64300057  0.11193120     0.13480
C151        C  0.12235733  0.67472835  0.06806825    -0.20880
C152        C  0.16151479  0.66881196  0.03957378    -0.07400
C153        C  0.17494468  0.63182663  0.05747755     0.13460
C154        C  0.21621535  0.62203595  0.03047764    -0.24230
H155        H  0.16020536  0.57428436  0.11588816     0.14750
H156        H  0.11246959  0.70340141  0.05481688     0.14780
C157        C  0.05029650  0.64843025  0.13793103    -0.24180
H158        H  0.19703741  0.58337054  0.01088772     0.04990
H159        H  0.24503087  0.62404783  0.06170004     0.08220
H160        H  0.23909134  0.65065807  0.99969744     0.08220
H161        H  0.05678159  0.65470208  0.18287047     0.08200
H162        H  0.01251099  0.61327122  0.12910622     0.08200
H163        H  0.04710578  0.68103031  0.12110815     0.04980
C164        C  0.36568196  0.48108335  0.42342826    -0.20830
C165        C  0.35530148  0.44145129  0.38567637    -0.07390
C166        C  0.30419769  0.39821193  0.38399684     0.13480
C167        C  0.26623173  0.39455735  0.42291579    -0.20880
C168        C  0.27722161  0.43447317  0.46110228    -0.07400
C169        C  0.32751257  0.47886479  0.45999567     0.13460
C170        C  0.34187576  0.52510944  0.49608124    -0.24230
H171        H  0.40417000  0.51512713  0.42371135     0.14750
H172        H  0.22775934  0.36056887  0.42344795     0.14780
C173        C  0.28956151  0.35605779  0.34184242    -0.24180
H174        H  0.38135208  0.55726070  0.48596206     0.04990
H175        H  0.34489902  0.51611412  0.03896768     0.08220
H176        H  0.31241135  0.53838529  0.99116916     0.08220
H177        H  0.31745220  0.34069553  0.34401833     0.08200
H178        H  0.29109546  0.37102162  0.30023325     0.08200
H179        H  0.24886093  0.32410690  0.34823707     0.04980
C180        C  0.26726627  0.39298249  0.07595576    -0.20830
C181        C  0.25356218  0.43031814  0.06132706    -0.07390
C182        C  0.26348821  0.47051722  0.09944311     0.13480
C183        C  0.29421867  0.47631787  0.14621369    -0.20880
C184        C  0.31655439  0.44439621  0.15419989    -0.07400
C185        C  0.29634692  0.39841708  0.12370167     0.13460
C186        C  0.30186977  0.35402206  0.14388517    -0.24230
H187        H  0.25611660  0.35997276  0.04915192     0.14750
H188        H  0.30616195  0.50973825  0.17256170     0.14780
C189        C  0.24934815  0.51194379  0.08908394    -0.24180
H190        H  0.28228359  0.32036355  0.11566643     0.04990
H191        H  0.28254668  0.34271663  0.18451578     0.08220
H192        H  0.34369357  0.36383632  0.14875382     0.08220
H193        H  0.21995335  0.50987403  0.11986184     0.08200
H194        H  0.23321420  0.50963372  0.04759464     0.08200
H195        H  0.28525070  0.55000790  0.09285150     0.04980
C196        C  0.19907115  0.46221496  0.39763116    -0.20830
C197        C  0.17234369  0.41814748  0.42936825    -0.07390
C198        C  0.12476686  0.37718978  0.40909499     0.13480
C199        C  0.10033751  0.38467695  0.36355920    -0.20880
C200        C  0.12214861  0.43236302  0.33784055    -0.07400
C201        C  0.17503236  0.46915777  0.35090978     0.13460
C202        C  0.20616639  0.51555298  0.31666126    -0.24230
H203        H  0.23674613  0.49304183  0.41187532     0.14750
H204        H  0.06157723  0.35432285  0.35130537     0.14780
C205        C  0.09815298  0.32641901  0.43723626    -0.24180
H206        H  0.24788956  0.53791011  0.33089812     0.04990
H207        H  0.18876339  0.54106079  0.31898283     0.08220
H208        H  0.20644468  0.50353424  0.27335618     0.08220
H209        H  0.08464857  0.33049977  0.47866280     0.08740
H210        H  0.12628605  0.31131884  0.44065262     0.08200
H211        H  0.06286944  0.29777795  0.41403731     0.04980
C212        C  0.09630066  0.39958524  0.11278557    -0.20830
C213        C  0.07625726  0.43252489  0.09997656    -0.07390
C214        C  0.08962479  0.45746248  0.04895683     0.13480
C215        C  0.12709630  0.45352773  0.01584162    -0.20880
C216        C  0.14801148  0.42120322  0.02851412    -0.07400
C217        C  0.12907649  0.39102151  0.07601915     0.13460
C218        C  0.13901605  0.34721244  0.08732171    -0.24230
H219        H  0.08454325  0.37876838  0.15074973     0.14750
H220        H  0.13989125  0.47597147  0.97907041     0.14780
C221        C  0.06502990  0.48844996  0.02834101    -0.24180
H222        H  0.10057801  0.31187019  0.09273766     0.04990
H223        H  0.16264741  0.35521748  0.12553245     0.08220
H224        H  0.15940492  0.33937891  0.05294815     0.08220
H225        H  0.07188223  0.51964307  0.05764063     0.08200
H226        H  0.02178409  0.46327260  0.02264344     0.08200
H227        H  0.08155703  0.50609219  0.98822933     0.04980
C228        C  0.55613934  0.69443540  0.41614281    -0.20830
C229        C  0.51055212  0.68897959  0.44294999    -0.07390
C230        C  0.46044020  0.65336904  0.42055920     0.13480
C231        C  0.45766505  0.61968473  0.37831642    -0.20880
C232        C  0.50321000  0.62124932  0.35582743    -0.07400
C233        C  0.55324286  0.66159406  0.37259350     0.13460
C234        C  0.60371922  0.67093414  0.34478772    -0.24230
H235        H  0.59454143  0.72397047  0.43002796     0.14750
H236        H  0.41906762  0.59090984  0.36359203     0.14780
C237        C  0.40937592  0.65121289  0.43793069    -0.24180
H238        H  0.63838588  0.70644552  0.36046447     0.04990
H239        H  0.60046771  0.67485391  0.30002256     0.08220
H240        H  0.61165369  0.63906245  0.35234211     0.08220
H241        H  0.40303230  0.64607010  0.48225316     0.08200
H242        H  0.37448744  0.61894142  0.41770015     0.08200
H243        H  0.40923643  0.68619388  0.42506853     0.04980
C244        C  0.46761594  0.65754358  0.07098137    -0.20830
C245        C  0.51665677  0.68770679  0.04590987    -0.07390
C246        C  0.55959343  0.67969990  0.05960263     0.13480
C247        C  0.55065869  0.63834111  0.09285284    -0.20880
C248        C  0.50081336  0.60749729  0.11611824    -0.07400
C249        C  0.45994356  0.61929692  0.10749574     0.13460
C250        C  0.40704397  0.58947678  0.13420393    -0.24230
H251        H  0.43510401  0.66464940  0.06287799     0.14750
H252        H  0.58261370  0.63006093  0.10048780     0.14780
C253        C  0.61499120  0.71411663  0.04009959    -0.24180
H254        H  0.37887045  0.60280675  0.12213086     0.04990
H255        H  0.41166564  0.59321166  0.17945469     0.08220
H256        H  0.39045094  0.54902309  0.12138016     0.08220
H257        H  0.61850274  0.74817611  0.01925009     0.08200
H258        H  0.62759740  0.69253365  0.01186555     0.08200
H259        H  0.64231457  0.72832545  0.07586341     0.04980
C260        C  0.54809266  0.80330894  0.40582420    -0.20830
C261        C  0.51103387  0.78456233  0.44848042    -0.07390
C262        C  0.46227645  0.78418802  0.44324678     0.13480
C263        C  0.45096404  0.80051366  0.39443394    -0.20880
C264        C  0.49024048  0.82486172  0.35489836    -0.07400
C265        C  0.53979284  0.82684645  0.36072503     0.13460
C266        C  0.58423229  0.85434034  0.32069849    -0.24230
H267        H  0.58511212  0.80276738  0.40977279     0.14750
H268        H  0.41305857  0.79922390  0.38972736     0.14780
C269        C  0.42267690  0.76812500  0.48948058    -0.24180
H270        H  0.61996932  0.85171932  0.33211016     0.04990
H271        H  0.59576888  0.89547232  0.32007009     0.08220
H272        H  0.57204566  0.83736950  0.27908257     0.08220
H273        H  0.43815255  0.79741914  0.02291819     0.08200
H274        H  0.41493469  0.73105433  0.00630550     0.08200
H275        H  0.38427772  0.76395518  0.47565707     0.04980
C276        C  0.50588121  0.78021468  0.09902087    -0.20830
C277        C  0.53313171  0.79996248  0.04978925    -0.07390
C278        C  0.55922308  0.85419680  0.04488004     0.13480
C279        C  0.54610325  0.88390625  0.08038356    -0.20880
C280        C  0.51428069  0.86240055  0.12620509    -0.07400
C281        C  0.49841942  0.81101573  0.13822909     0.13460
C282        C  0.47218083  0.78758888  0.19148446    -0.24230
H283        H  0.48743762  0.74056928  0.10704255     0.14750
H284        H  0.56179881  0.92430126  0.07292620     0.14780
C285        C  0.60209006  0.88210939  0.00362108    -0.24180
H286        H  0.46039454  0.74637601  0.19316513     0.04990
H287        H  0.43653435  0.79137318  0.19807412     0.08220
H288        H  0.50019492  0.80740622  0.22545130     0.08220
H289        H  0.58767203  0.89810288  0.47141872     0.08200
H290        H  0.61643564  0.85703665  0.98517912     0.08200
H291        H  0.63685091  0.91400726  0.02444194     0.04980
C292        C  0.76878936  0.25314680  0.09208849    -0.20830
C293        C  0.79793482  0.23429883  0.06266424    -0.07390
C294        C  0.85261138  0.25505771  0.07538181     0.13480
C295        C  0.87774708  0.29762546  0.11091206    -0.20880
C296        C  0.84967647  0.31939745  0.13598259    -0.07400
C297        C  0.79420383  0.29566078  0.12837727     0.13460
C298        C  0.76271526  0.31791923  0.15491778    -0.24230
H299        H  0.72735700  0.23847066  0.08208158     0.14750
H300        H  0.92008255  0.31492062  0.11782664     0.14780
C301        C  0.88653270  0.23501964  0.04963603    -0.24180
H302        H  0.72007693  0.29585554  0.14383972     0.04990
H303        H  0.77825464  0.35766942  0.14104959     0.08220
H304        H  0.76636392  0.31799265  0.20019003     0.08220
H305        H  0.86321679  0.19987770  0.02486409     0.08200
H306        H  0.90664868  0.22542191  0.08229771     0.08200
H307        H  0.91691636  0.26459731  0.02315990     0.04980
C308        C  0.80583793  0.29196853  0.46231367    -0.20830
C309        C  0.80709390  0.24553280  0.46178042    -0.07390
C310        C  0.83318435  0.23503963  0.41819363     0.13480
C311        C  0.85779697  0.27174695  0.37738773    -0.20880
C312        C  0.85207159  0.31579708  0.37585293    -0.07400
C313        C  0.82201015  0.32352114  0.41688461     0.13460
C314        C  0.79956159  0.35901867  0.40940128    -0.24230
H315        H  0.78458016  0.29960947  0.49457615     0.14750
H316        H  0.88054453  0.26531235  0.34576943     0.14780
C317        C  0.83674051  0.18658871  0.41367435    -0.24180
H318        H  0.77482987  0.35855245  0.44459605     0.04990
H319        H  0.77408677  0.34710145  0.37220229     0.08220
H320        H  0.83138763  0.39816695  0.40418485     0.08220
H321        H  0.81602341  0.15985301  0.44723778     0.08200
H322        H  0.87893589  0.19603052  0.41442801     0.08200
H323        H  0.81859829  0.16652615  0.37435280     0.04980
C324        C  0.69753576  0.09266056  0.42864163    -0.20830
C325        C  0.71157313  0.14412512  0.43952697    -0.07390
C326        C  0.69560575  0.16872571  0.40044439     0.13480
C327        C  0.66653515  0.14190882  0.35406387    -0.20880
C328        C  0.64647930  0.08937203  0.34755629    -0.07400
C329        C  0.66409218  0.06452787  0.38437442     0.13460
C330        C  0.64656952  0.00827904  0.37922673    -0.24230
H331        H  0.70915468  0.07311926  0.45790038     0.14750
H332        H  0.65500777  0.16177987  0.32511555     0.14780
C333        C  0.70421661  0.22181730  0.40667468    -0.24180
H334        H  0.66653272  0.99633071  0.40980250     0.04990
H335        H  0.65641184  0.99936587  0.33781438     0.08220
H336        H  0.60334510  0.98541530  0.38645284     0.08220
H337        H  0.73965215  0.24671112  0.38296758     0.08200
H338        H  0.70454905  0.23317164  0.45022712     0.08200
H339        H  0.67323460  0.22620688  0.38557285     0.04980
C340        C  0.63932873  0.11838820  0.03059301    -0.20830
C341        C  0.69250379  0.13350995  0.04164439    -0.07390
C342        C  0.70349881  0.11161346  0.08766262     0.13480
C343        C  0.66156633  0.07871852  0.12251312    -0.20880
C344        C  0.60805580  0.06169570  0.10912519    -0.07400
C345        C  0.59747883  0.08063059  0.06013175     0.13460
C346        C  0.54274981  0.06041431  0.03551894    -0.24230
H347        H  0.63000636  0.13397133  0.99530922     0.14750
H348        H  0.67067073  0.06395859  0.15867696     0.14780
C349        C  0.75763930  0.11861273  0.09927046    -0.24180
H350        H  0.54342300  0.07861378  0.99605349     0.04990
H351        H  0.51678992  0.06781815  0.06315523     0.08220
H352        H  0.52509646  0.01876436  0.02682599     0.08220
H353        H  0.77318998  0.14071443  0.13818819     0.08200
H354        H  0.78578884  0.13806813  0.06584459     0.08200
H355        H  0.75517278  0.08063194  0.10323477     0.04980
C356        C  0.43523960  0.25645142  0.41940343    -0.20830
C357        C  0.48469931  0.26783000  0.44190320    -0.07390
C358        C  0.52921978  0.31330966  0.42503573     0.13480
C359        C  0.52253976  0.35072982  0.39915600    -0.20880
C360        C  0.47288616  0.34275085  0.38393804    -0.07400
C361        C  0.42862097  0.29380207  0.39115340     0.13460
C362        C  0.37427569  0.28222659  0.37302497    -0.24230
H363        H  0.40081932  0.22039920  0.42905191     0.14750
H364        H  0.55711445  0.38582393  0.38763993     0.14780
C365        C  0.58399979  0.32077019  0.42647943    -0.24180
H366        H  0.34394026  0.24273994  0.38345832     0.04990
H367        H  0.37332984  0.28609042  0.32797964     0.08220
H368        H  0.36371967  0.30919788  0.39409159     0.08220
H369        H  0.59604508  0.31790938  0.46834791     0.08200
H370        H  0.61296718  0.35846036  0.91093910     0.08200
H371        H  0.58597330  0.29341181  0.39705256     0.04980
C372        C  0.50106737  0.33593655  0.11931981    -0.20830
C373        C  0.45848682  0.34442280  0.11012110    -0.07390
C374        C  0.42126078  0.31492801  0.06940819     0.13480
C375        C  0.42678055  0.27628003  0.04127814    -0.20880
C376        C  0.47362213  0.27239218  0.04458211    -0.07400
C377        C  0.51121688  0.30348386  0.08532492     0.13460
C378        C  0.56272562  0.30473666  0.09470634    -0.24230
H379        H  0.52858387  0.35711453  0.15203752     0.14750
H380        H  0.39560087  0.25181115  0.01322336     0.14780
C381        C  0.37737335  0.32490653  0.05217697    -0.24180
H382        H  0.58879356  0.33600359  0.12346603     0.04990
H383        H  0.58478018  0.31167489  0.05611249     0.08220
H384        H  0.55462811  0.26929595  0.11501995     0.08220
H385        H  0.38172931  0.36080732  0.07051019     0.08200
H386        H  0.33858020  0.29222682  0.06344434     0.08200
H387        H  0.37856731  0.32941839  0.00701941     0.04980
C388        C  0.43529318  0.12642737  0.43785629    -0.20830
C389        C  0.48516515  0.16814176  0.45243409    -0.07390
C390        C  0.53037087  0.17011111  0.42722456     0.13480
C391        C  0.52570464  0.13124313  0.39152764    -0.20880
C392        C  0.47700057  0.08940627  0.37897943    -0.07400
C393        C  0.43076636  0.08692334  0.40144863     0.13460
C394        C  0.37739987  0.04218371  0.38827455    -0.24230
H395        H  0.39996760  0.12367178  0.45658035     0.14750
H396        H  0.56119096  0.13333334  0.37368827     0.14780
C397        C  0.58499199  0.21209121  0.43580514    -0.24180
H398        H  0.34517125  0.04573382  0.40942407     0.04990
H399        H  0.37611110  0.00630912  0.40145975     0.08220
H400        H  0.37014956  0.03986874  0.34340572     0.08220
H401        H  0.60910515  0.19709282  0.95495425     0.08200
H402        H  0.58585445  0.24231847  0.96127225     0.08200
H403        H  0.60134403  0.22851527  0.39542668     0.04980
C404        C  0.52011709  0.14402483  0.12420447    -0.20830
C405        C  0.46954788  0.10521429  0.13800734    -0.07390
C406        C  0.42513829  0.10480754  0.11343056     0.13480
C407        C  0.43326348  0.14175389  0.07382696    -0.20880
C408        C  0.48445193  0.17685604  0.05557821    -0.07400
C409        C  0.52852078  0.17765836  0.08221534     0.13460
C410        C  0.58587304  0.21167345  0.06852470    -0.24230
H411        H  0.55487478  0.14564895  0.14290968     0.14750
H412        H  0.39931768  0.14061559  0.05386083     0.14780
C413        C  0.36952329  0.06529793  0.12755918    -0.24180
H414        H  0.60232559  0.18891087  0.04869904     0.04990
H415        H  0.60902617  0.22930894  0.10664402     0.08220
H416        H  0.59224657  0.24366064  0.04341767     0.08220
H417        H  0.36343908  0.06610998  0.17246287     0.08200
H418        H  0.36222331  0.02673728  0.11433125     0.08200
H419        H  0.33978118  0.07246796  0.10668073     0.04980
C420        C  0.70596261  0.54283396  0.42703877    -0.20830
C421        C  0.71623570  0.50306685  0.43914984    -0.07390
C422        C  0.70065830  0.46226115  0.40015032     0.13480
C423        C  0.66636677  0.45789621  0.35652567    -0.20880
C424        C  0.64909646  0.49416783  0.34966714    -0.07400
C425        C  0.67302510  0.53932063  0.38337328     0.13460
C426        C  0.66143998  0.58293295  0.37750497    -0.24230
H427        H  0.71994668  0.57513203  0.45548220     0.14750
H428        H  0.65076224  0.42455954  0.32951025     0.14780
C429        C  0.71731203  0.42193935  0.40534535    -0.24180
H430        H  0.68597873  0.61562758  0.40556655     0.04990
H431        H  0.61946810  0.56998901  0.38805568     0.08220
H432        H  0.67023881  0.59743466  0.33506826     0.08220
H433        H  0.70774481  0.40467536  0.44641792     0.08200
H434        H  0.76025238  0.43868595  0.39805908     0.08200
H435        H  0.69772710  0.39088813  0.37406193     0.04980
C436        C  0.60407487  0.46379914  0.08102266    -0.20830
C437        C  0.62213626  0.49862762  0.12484537    -0.07390
C438        C  0.67518848  0.53795350  0.12557812     0.13480
C439        C  0.70947158  0.53967198  0.08291090    -0.20880
C440        C  0.69194422  0.50202343  0.04039162    -0.07400
C441        C  0.63747090  0.46498095  0.03912371     0.13460
C442        C  0.61323312  0.42508443  0.99491279    -0.24230
H443        H  0.56279272  0.43480272  0.07962639     0.14750
H444        H  0.75026155  0.56987399  0.08333696     0.14780
C445        C  0.69567608  0.57665438  0.17187264    -0.24180
H446        H  0.61197699  0.44325490  0.95642555     0.04990
H447        H  0.57190497  0.39596809  0.00441936     0.08220
H448        H  0.63643565  0.40510661  0.99035643     0.08220
H449        H  0.69063210  0.55695415  0.21133159     0.08200
H450        H  0.67331422  0.59808690  0.17337164     0.08200
H451        H  0.73833606  0.60445092  0.16679808     0.04980
C452        C  0.83181012  0.54232011  0.09682153    -0.20830
C453        C  0.78680447  0.50004899  0.07463043    -0.07390
C454        C  0.75772268  0.45688629  0.10814395     0.13480
C455        C  0.77935936  0.45431111  0.15854935    -0.20880
C456        C  0.83030485  0.49203539  0.17434808    -0.07400
C457        C  0.85331421  0.53925096  0.14708783     0.13460
C458        C  0.89958703  0.58652167  0.17105659    -0.24230
H459        H  0.85190710  0.57681971  0.07314481     0.14750
H460        H  0.75949489  0.41940963  0.18157447     0.14780
C461        C  0.70797825  0.41008798  0.08953323    -0.24180
H462        H  0.91004809  0.62050179  0.14568799     0.04990
H463        H  0.93516897  0.58210076  0.17393532     0.08220
H464        H  0.88918579  0.59442474  0.21264452     0.08220
H465        H  0.71180603  0.37531542  0.09504969     0.08200
H466        H  0.69965928  0.41092762  0.04576571     0.08200
H467        H  0.67424172  0.40682891  0.11431776     0.04980
C468        C  0.83327959  0.53417402  0.42872831    -0.20830
C469        C  0.81905913  0.50366139  0.47597222    -0.07390
C470        C  0.84744341  0.47671644  0.48614716     0.13480
C471        C  0.88778948  0.48192440  0.45062774    -0.20880
C472        C  0.89399646  0.50333736  0.39871012    -0.07400
C473        C  0.86730608  0.53147592  0.38826536     0.13460
C474        C  0.87330050  0.55792269  0.33480749    -0.24230
H475        H  0.81577815  0.55829165  0.42173679     0.14750
H476        H  0.90983815  0.46249219  0.46080685     0.14780
C477        C  0.83339506  0.43788029  0.53065091    -0.24180
H478        H  0.85139601  0.57981065  0.33482710     0.04990
H479        H  0.85700933  0.52924308  0.30089901     0.08220
H480        H  0.91558347  0.58503376  0.32704986     0.08220
H481        H  0.79028948  0.41089199  0.02992047     0.08200
H482        H  0.84699501  0.45712163  0.07102690     0.08200
H483        H  0.85297903  0.41408780  0.02480096     0.04980
C484        C  0.77601628  0.50069340  0.51463230     0.00040
C485        C  0.73057119  0.50110951  0.99812422     0.00040
C486        C  0.48898081  0.20166838  0.00148176     0.00040
C487        C  0.48543827  0.24581289  0.99678125     0.00040
C488        C  0.73128667  0.16482812  0.99728423     0.00040
C489        C  0.77803988  0.20969476  0.50712454     0.00040
C490        C  0.52353561  0.76580053  0.99915280     0.00040
C491        C  0.51745540  0.71722961  0.99696687     0.00040
C492        C  0.18721226  0.41977640  0.48838768     0.00040
C493        C  0.23675849  0.42889876  0.00321333     0.00040
C494        C  0.22567618  0.75160346  0.99898229     0.00040
C495        C  0.18738407  0.70156266  0.49085131     0.00040
O496        O  0.93022250  0.36509906  0.82619311    -0.80660
O497        O  0.01266634  0.45723436  0.62794036    -0.80680
O498        O  0.87695898  0.36976108  0.71810989    -0.80690
O499        O  0.09789809  0.48729092  0.78674887    -0.80630
O500        O  0.90924287  0.40898269  0.64291586    -0.80750
O501        O  0.03625741  0.41187842  0.80856426    -0.80670
O502        O  0.05769095  0.44754479  0.69152143    -0.80660
O503        O  0.86835512  0.38666680  0.81908207    -0.80700
C504        C  0.88385245  0.35642995  0.83671401     1.09030
C505        C  0.04624694  0.44453731  0.64186298     1.08920
C506        C  0.87985481  0.36823073  0.66724648     1.09050
C507        C  0.08477137  0.44405590  0.80723344     1.08930
O508        O  0.04659129  0.50709085  0.85613391    -0.80660
O509        O  0.91379100  0.49909389  0.70050222    -0.80740
O510        O  0.92325279  0.49704954  0.80646744    -0.80670
O511        O  0.10470993  0.55080026  0.69980680    -0.80650
O512        O  0.02920013  0.55015249  0.68097837    -0.80700
O513        O  0.94081959  0.45939337  0.87191505    -0.80670
O514        O  0.04493155  0.54999539  0.78585784    -0.80630
O515        O  0.84107836  0.43760493  0.73818398    -0.80700
Co516      Co  0.98782453  0.43617692  0.83492612     1.51530
Co517      Co  0.96685039  0.47572733  0.67337865     1.51690
Co518      Co  0.90367149  0.43573842  0.75792750     1.51570
Co519      Co  0.04793569  0.49764808  0.73681548     1.51470
O520        O  0.97604565  0.44668564  0.75397843    -1.42590
C521        C  0.05808544  0.54952422  0.83475467     1.08960
C522        C  0.86280195  0.47570718  0.70653590     1.09050
C523        C  0.92284235  0.48838859  0.85688725     1.08990
C524        C  0.07962368  0.56812663  0.67265793     1.08960
O525        O  0.47956351  0.43034059  0.63039305    -0.80660
O526        O  0.44635370  0.47913866  0.86504635    -0.80680
O527        O  0.45419517  0.37338345  0.80418281    -0.80690
O528        O  0.37600119  0.49643736  0.72461195    -0.80630
O529        O  0.50386481  0.43053667  0.86590961    -0.80750
O530        O  0.40285603  0.45253490  0.67148943    -0.80670
O531        O  0.39033331  0.43701099  0.79782825    -0.80660
O532        O  0.44481684  0.37565472  0.69474225    -0.80700
C533        C  0.45625634  0.38433017  0.64498219     1.09030
C534        C  0.39915903  0.45012842  0.84798233     1.08920
C535        C  0.47303044  0.38400731  0.85173862     1.09050
C536        C  0.36678814  0.46469475  0.68567310     1.08930
O537        O  0.48872546  0.52351452  0.61518754    -0.80660
O538        O  0.58821287  0.51498846  0.80677305    -0.80740
O539        O  0.55954637  0.44383259  0.68749512    -0.80670
O540        O  0.45021491  0.54567400  0.80225647    -0.80650
O541        O  0.53272453  0.56706573  0.81191139    -0.80700
O542        O  0.56498437  0.51956199  0.67714848    -0.80670
O543        O  0.47935788  0.55425852  0.69546145    -0.80630
O544        O  0.57037605  0.43590941  0.79710110    -0.80700
Co545      Co  0.48658868  0.48841319  0.67934803     1.51530
Co546      Co  0.51723481  0.49751688  0.83274203     1.51690
Co547      Co  0.50522357  0.40965676  0.74621055     1.51570
Co548      Co  0.43546809  0.49069464  0.74599479     1.51470
O549        O  0.49021705  0.46896073  0.75679727    -1.42590
C550        C  0.48956553  0.55977107  0.64341594     1.08960
C551        C  0.60191133  0.48160466  0.81360665     1.09050
C552        C  0.58295758  0.48889043  0.66851952     1.08990
C553        C  0.49593067  0.57757651  0.81946555     1.08960
O554        O  0.51694565  0.00971653  0.62984355    -0.80660
O555        O  0.51240712  0.90296288  0.81021574    -0.80680
O556        O  0.58538813  0.08767289  0.77990958    -0.80690
O557        O  0.50209782  0.89854597  0.70892708    -0.80630
O558        O  0.57637887  0.01317122  0.80354507    -0.80750
O559        O  0.46470569  0.90671465  0.63494998    -0.80670
O560        O  0.43704296  0.83419501  0.78759644    -0.80660
O561        O  0.57077487  0.02057724  0.69658839    -0.80700
C562        C  0.56375465  0.02716055  0.64672877     1.09030
C563        C  0.47994852  0.85471832  0.81474599     1.08920
C564        C  0.60148100  0.06238393  0.80815217     1.09050
C565        C  0.49436240  0.89220562  0.65803655     1.08930
O566        O  0.37159419  0.91174352  0.67546916    -0.80660
O567        O  0.49254568  0.01965423  0.86328801    -0.80740
O568        O  0.51101863  0.07349729  0.69637612    -0.80670
O569        O  0.37934756  0.88319901  0.79619318    -0.80650
O570        O  0.43257936  0.91902910  0.86343879    -0.80700
O571        O  0.42979704  0.01853304  0.67057850    -0.80670
O572        O  0.38935019  0.85186791  0.69814202    -0.80630
O573        O  0.47838656  0.05250602  0.79292459    -0.80700
Co574      Co  0.44623297  0.96137043  0.65929519     1.51530
Co575      Co  0.49930182  0.96383708  0.82414947     1.51690
Co576      Co  0.52329102  0.03171925  0.74973557     1.51570
Co577      Co  0.44294835  0.89375516  0.75504664     1.51470
O578        O  0.46334676  0.96422418  0.74246916    -1.42590
C579        C  0.35871828  0.86495319  0.67535284     1.08960
C580        C  0.47891292  0.04977550  0.84365623     1.09050
C581        C  0.46831543  0.06394512  0.67210847     1.08990
C582        C  0.38633329  0.88985586  0.84677845     1.08960
C583        C  0.29002594  0.83342213  0.87028701    -0.20830
C584        C  0.34374473  0.85877018  0.88646816    -0.07390
C585        C  0.35661291  0.84968673  0.93951166     0.13480
C586        C  0.31762744  0.81092342  0.97031122    -0.20880
C587        C  0.26352604  0.78622537  0.95593300    -0.07400
C588        C  0.24954172  0.80038940  0.90609789     0.13460
C589        C  0.19341371  0.78544650  0.89141696    -0.24230
H590        H  0.27928543  0.84152572  0.83068976     0.14750
H591        H  0.33020554  0.80161147  0.00786083     0.14780
C592        C  0.41070453  0.88089489  0.96585821    -0.24180
H593        H  0.19097195  0.82008146  0.88053295     0.04990
H594        H  0.16617536  0.76832025  0.92627655     0.08220
H595        H  0.18024949  0.75849727  0.85570518     0.08220
H596        H  0.42105670  0.92178595  0.96787531     0.08200
H597        H  0.44153029  0.87674576  0.94289525     0.08200
H598        H  0.41182985  0.86925425  0.00857095     0.04980
C599        C  0.26912635  0.75067169  0.58575744    -0.20830
C600        C  0.24237402  0.77098484  0.55654982    -0.07390
C601        C  0.24475546  0.81680321  0.57544407     0.13480
C602        C  0.27910624  0.84430749  0.61890393    -0.20880
C603        C  0.31209676  0.82749965  0.64279728    -0.07400
C604        C  0.30427422  0.77818657  0.62804376     0.13460
C605        C  0.33733118  0.75637377  0.65028559    -0.24230
H606        H  0.26937332  0.71702480  0.56974249     0.14750
H607        H  0.28315161  0.88103162  0.63112857     0.14780
C608        C  0.21324070  0.83787486  0.54778322    -0.24180
H609        H  0.32310562  0.71627796  0.63612730     0.04990
H610        H  0.33613298  0.75626397  0.69576549     0.08220
H611        H  0.37814567  0.77929374  0.63466987     0.08220
H612        H  0.17052700  0.80917415  0.54873461     0.08200
H613        H  0.22590040  0.84701531  0.50459006     0.08200
H614        H  0.21858116  0.87341649  0.56857833     0.04980
C615        C  0.14808523  0.61593760  0.86367536    -0.20830
C616        C  0.09333957  0.59795781  0.86452270    -0.07390
C617        C  0.07378905  0.62461034  0.89658925     0.13480
C618        C  0.10815542  0.66406648  0.93209955    -0.20880
C619        C  0.16180047  0.67729309  0.93726641    -0.07400
C620        C  0.18281610  0.65532793  0.89949729     0.13460
C621        C  0.24078360  0.67134380  0.89584497    -0.24230
H622        H  0.16365743  0.59805884  0.83596654     0.14750
H623        H  0.09197467  0.68190399  0.95941948     0.14780
C624        C  0.01623721  0.60939531  0.89631903    -0.24180
H625        H  0.25526402  0.68556022  0.85410992     0.04990
H626        H  0.24676094  0.63800246  0.40325432     0.08220
H627        H  0.26521862  0.70217477  0.42549253     0.08220
H628        H  0.99417829  0.57109485  0.91422086     0.08200
H629        H  0.00296169  0.60893740  0.85365915     0.08200
H630        H  0.00784391  0.63604097  0.92131370     0.04980
C631        C  0.14952897  0.60259767  0.60306700    -0.20830
C632        C  0.10849862  0.60644282  0.62991973    -0.07390
C633        C  0.09456696  0.64299511  0.61192683     0.13480
C634        C  0.12235093  0.67472356  0.56806455    -0.20880
C635        C  0.16151265  0.66881092  0.53957422    -0.07400
C636        C  0.17494531  0.63182841  0.55748136     0.13460
C637        C  0.21621758  0.62203867  0.53048383    -0.24230
H638        H  0.16020932  0.57428993  0.61589552     0.14750
H639        H  0.11246032  0.70339384  0.55481021     0.14780
C640        C  0.05028256  0.64841838  0.63791952    -0.24180
H641        H  0.19704113  0.58337266  0.51089534     0.04990
H642        H  0.24503315  0.62405256  0.56170734     0.08220
H643        H  0.23909317  0.65066007  0.49970300     0.08220
H644        H  0.05676307  0.65469203  0.68285931     0.08200
H645        H  0.01250034  0.61325608  0.62909276     0.08200
H646        H  0.04708794  0.68101502  0.62109269     0.04980
C647        C  0.36568163  0.48108358  0.92342908    -0.20830
C648        C  0.35530102  0.44145225  0.88567613    -0.07390
C649        C  0.30419755  0.39821249  0.88399680     0.13480
C650        C  0.26623190  0.39455696  0.92291661    -0.20880
C651        C  0.27722177  0.43447221  0.96110392    -0.07400
C652        C  0.32751257  0.47886404  0.95999754     0.13460
C653        C  0.34187594  0.52510791  0.99608447    -0.24230
H654        H  0.40416953  0.51512752  0.92371226     0.14750
H655        H  0.22775971  0.36056825  0.92344872     0.14780
C656        C  0.28956143  0.35605889  0.84184169    -0.24180
H657        H  0.38135218  0.55725945  0.98596557     0.04990
H658        H  0.34489855  0.51611664  0.53896488     0.08220
H659        H  0.31241122  0.53838674  0.49116473     0.08220
H660        H  0.31745267  0.34069718  0.84401652     0.08200
H661        H  0.29109460  0.37102308  0.80023288     0.08200
H662        H  0.24886117  0.32410754  0.84823657     0.04980
C663        C  0.26726610  0.39298431  0.57595458    -0.20830
C664        C  0.25356240  0.43032010  0.56132539    -0.07390
C665        C  0.26348855  0.47051946  0.59944106     0.13480
C666        C  0.29421878  0.47632020  0.64621184    -0.20880
C667        C  0.31655405  0.44439826  0.65419862    -0.07400
C668        C  0.29634640  0.39841893  0.62370074     0.13460
C669        C  0.30186875  0.35402380  0.64388480    -0.24230
H670        H  0.25611631  0.35997438  0.54915100     0.14750
H671        H  0.30616228  0.50974082  0.67255952     0.14780
C672        C  0.24934890  0.51194622  0.58908125    -0.24180
H673        H  0.28228253  0.32036517  0.61566621     0.04990
H674        H  0.28254544  0.34271868  0.68451534     0.08220
H675        H  0.34369245  0.36383781  0.64875376     0.08220
H676        H  0.21995407  0.50987685  0.61985889     0.08200
H677        H  0.23321514  0.50963596  0.54759180     0.08200
H678        H  0.28525159  0.55001023  0.59284867     0.04980
C679        C  0.19907173  0.46221523  0.89763351    -0.20830
C680        C  0.17234461  0.41814689  0.92936933    -0.07390
C681        C  0.12476833  0.37718918  0.90909510     0.13480
C682        C  0.10033913  0.38467684  0.86355946    -0.20880
C683        C  0.12214959  0.43236357  0.83784226    -0.07400
C684        C  0.17503280  0.46915896  0.85091282     0.13460
C685        C  0.20616560  0.51555664  0.81666747    -0.24230
H686        H  0.23674614  0.49304228  0.91187872     0.14750
H687        H  0.06157932  0.35432249  0.85130471     0.14780
C688        C  0.09815477  0.32641789  0.93723534    -0.24180
H689        H  0.24788870  0.53791397  0.83090453     0.04990
H690        H  0.18876113  0.54106310  0.81899296     0.08220
H691        H  0.20644427  0.50354103  0.77336121     0.08220
H692        H  0.08465030  0.33049784  0.97866216     0.08740
H693        H  0.12628809  0.31131797  0.94065103     0.08200
H694        H  0.06287134  0.29777705  0.91403607     0.04980
C695        C  0.09630155  0.39958626  0.61278519    -0.20830
C696        C  0.07625855  0.43252640  0.59997706    -0.07390
C697        C  0.08962626  0.45746471  0.54895772     0.13480
C698        C  0.12709722  0.45352972  0.51584177    -0.20880
C699        C  0.14801190  0.42120465  0.52851341    -0.07400
C700        C  0.12907701  0.39102259  0.57601821     0.13460
C701        C  0.13901627  0.34721320  0.58731994    -0.24230
H702        H  0.08454404  0.37876893  0.65074906     0.14750
H703        H  0.13989218  0.47597367  0.47907068     0.14780
C704        C  0.06503213  0.48845323  0.52834309    -0.24180
H705        H  0.10057812  0.31187100  0.59273561     0.04990
H706        H  0.16264760  0.35521770  0.62553061     0.08220
H707        H  0.15940506  0.33937992  0.55294611     0.08220
H708        H  0.07188480  0.51964577  0.55764363     0.08200
H709        H  0.02178626  0.46327646  0.52264521     0.08200
H710        H  0.08155961  0.50609628  0.48823182     0.04980
C711        C  0.55613805  0.69443457  0.91614599    -0.20830
C712        C  0.51055064  0.68897839  0.94295313    -0.07390
C713        C  0.46043890  0.65336799  0.92056181     0.13480
C714        C  0.45766409  0.61968449  0.87831818    -0.20880
C715        C  0.50320922  0.62124980  0.85582868    -0.07400
C716        C  0.55324191  0.66159425  0.87259566     0.13460
C717        C  0.60371842  0.67093529  0.84478952    -0.24230
H718        H  0.59454003  0.72396946  0.93003160     0.14750
H719        H  0.41906677  0.59090979  0.86359332     0.14780
C720        C  0.40937445  0.65121132  0.93793361    -0.24180
H721        H  0.63838495  0.70644630  0.86046718     0.04990
H722        H  0.60046704  0.67485634  0.80002461     0.08220
H723        H  0.61165302  0.63906345  0.85234242     0.08220
H724        H  0.40303099  0.64606834  0.98225608     0.08200
H725        H  0.37448609  0.61893977  0.91770301     0.08200
H726        H  0.40923467  0.68619226  0.92507177     0.04980
C727        C  0.46761723  0.65754448  0.57097795    -0.20830
C728        C  0.51665820  0.68770719  0.54590648    -0.07390
C729        C  0.55959444  0.67969969  0.55959932     0.13480
C730        C  0.55065920  0.63834097  0.59284991    -0.20880
C731        C  0.50081379  0.60749779  0.61611551    -0.07400
C732        C  0.45994434  0.61929783  0.60749256     0.13460
C733        C  0.40704463  0.58947823  0.63420067    -0.24230
H734        H  0.43510579  0.66465108  0.56287479     0.14750
H735        H  0.58261389  0.63006040  0.60048509     0.14780
C736        C  0.61499231  0.71411574  0.54009610    -0.24180
H737        H  0.37887143  0.60280848  0.62212723     0.04990
H738        H  0.41166619  0.59321336  0.67945143     0.08220
H739        H  0.39045128  0.54902442  0.62137721     0.08220
H740        H  0.61850438  0.74817540  0.51924654     0.08200
H741        H  0.62759795  0.69253231  0.51186206     0.08200
H742        H  0.64231581  0.72832433  0.57585983     0.04980
C743        C  0.54809190  0.80330707  0.90582692    -0.20830
C744        C  0.51103233  0.78456110  0.94848247    -0.07390
C745        C  0.46227531  0.78418736  0.94324742     0.13480
C746        C  0.45096416  0.80051312  0.89443394    -0.20880
C747        C  0.49024126  0.82486011  0.85489870    -0.07400
C748        C  0.53979315  0.82684411  0.86072673     0.13460
C749        C  0.58423317  0.85433661  0.82070041    -0.24230
H750        H  0.58511110  0.80276517  0.90977669     0.14750
H751        H  0.41305917  0.79922416  0.88972642     0.14780
C752        C  0.42267494  0.76812493  0.98948041    -0.24180
H753        H  0.61996978  0.85171538  0.83211338     0.04990
H754        H  0.59577030  0.89546868  0.82007050     0.08220
H755        H  0.57204681  0.83736473  0.77908487     0.08220
H756        H  0.43815494  0.79741896  0.52291860     0.08200
H757        H  0.41493722  0.73105435  0.50630498     0.08200
H758        H  0.38427612  0.76395523  0.97565578     0.04980
C759        C  0.50588616  0.78021574  0.59901898    -0.20830
C760        C  0.53313535  0.79996366  0.54978677    -0.07390
C761        C  0.55922606  0.85419794  0.54487751     0.13480
C762        C  0.54610625  0.88390702  0.58038158    -0.20880
C763        C  0.51428436  0.86240096  0.62620344    -0.07400
C764        C  0.49842402  0.81101636  0.63822738     0.13460
C765        C  0.47218560  0.78758918  0.69148270    -0.24230
H766        H  0.48744372  0.74057053  0.60704111     0.14750
H767        H  0.56180120  0.92430196  0.57292432     0.14780
C768        C  0.60209233  0.88211087  0.50361796    -0.24180
H769        H  0.46040064  0.74637663  0.69316363     0.04990
H770        H  0.43653824  0.79137211  0.69807184     0.08220
H771        H  0.50019929  0.80740728  0.72544964     0.08220
H772        H  0.58767046  0.89810152  0.97142129     0.08200
H773        H  0.61643793  0.85703840  0.48517534     0.08200
H774        H  0.63685333  0.91400887  0.52443848     0.04980
C775        C  0.76879075  0.25314487  0.59208992    -0.20830
C776        C  0.79793670  0.23429861  0.56266372    -0.07390
C777        C  0.85261361  0.25505840  0.57538010     0.13480
C778        C  0.87774911  0.29762586  0.61091071    -0.20880
C779        C  0.84967787  0.31939634  0.63598306    -0.07400
C780        C  0.79420495  0.29565827  0.62837943     0.13460
C781        C  0.76271563  0.31791469  0.65492255    -0.24230
H782        H  0.72735805  0.23846796  0.58208408     0.14750
H783        H  0.92008482  0.31492199  0.61782417     0.14780
C784        C  0.88653540  0.23502175  0.54963239    -0.24180
H785        H  0.72007714  0.29585026  0.64384533     0.04990
H786        H  0.77825359  0.35766509  0.64105576     0.08220
H787        H  0.76636530  0.31798708  0.70019460     0.08220
H788        H  0.86321962  0.19988002  0.52486004     0.08200
H789        H  0.90665251  0.22542416  0.58229297     0.08200
H790        H  0.91691813  0.26460020  0.52315620     0.04980
C791        C  0.80583413  0.29196580  0.96231153    -0.20830
C792        C  0.80709212  0.24553108  0.96178067    -0.07390
C793        C  0.83318461  0.23503833  0.91819561     0.13480
C794        C  0.85779802  0.27174555  0.87738971    -0.20880
C795        C  0.85207078  0.31579457  0.87585256    -0.07400
C796        C  0.82200620  0.32351732  0.91688159     0.13460
C797        C  0.79955363  0.35901123  0.90939403    -0.24230
H798        H  0.78457474  0.29960634  0.99457255     0.14750
H799        H  0.88054754  0.26531160  0.84577315     0.14780
C800        C  0.83674209  0.18658802  0.91367813    -0.24180
H801        H  0.77481903  0.35854335  0.94458676     0.04990
H802        H  0.77408058  0.34709145  0.87219366     0.08220
H803        H  0.83137718  0.39816076  0.90417769     0.08220
H804        H  0.81602362  0.15985207  0.94724095     0.08200
H805        H  0.87893765  0.19603061  0.91443426     0.08200
H806        H  0.81860196  0.16652533  0.87435602     0.04980
C807        C  0.69753499  0.09265672  0.92864537    -0.20830
C808        C  0.71157301  0.14412176  0.93952869    -0.07390
C809        C  0.69560943  0.16872254  0.90044262     0.13480
C810        C  0.66654354  0.14190609  0.85405970    -0.20880
C811        C  0.64648473  0.08936874  0.84755490    -0.07400
C812        C  0.66409332  0.06452387  0.88437697     0.13460
C813        C  0.64656785  0.00827429  0.87923222    -0.24230
H814        H  0.70915124  0.07311521  0.95790656     0.14750
H815        H  0.65501949  0.16177762  0.82510854     0.14780
C816        C  0.70421412  0.22181192  0.90667338    -0.24180
H817        H  0.66652798  0.99632535  0.90981098     0.04990
H818        H  0.65641160  0.99935910  0.83782152     0.08220
H819        H  0.60334285  0.98541261  0.88645601     0.08220
H820        H  0.73964646  0.24670876  0.88296339     0.08200
H821        H  0.70454825  0.23316665  0.95022587     0.08200
H822        H  0.67322663  0.22619517  0.88557519     0.04980
C823        C  0.63933049  0.11838902  0.53059285    -0.20830
C824        C  0.69250569  0.13351050  0.54164283    -0.07390
C825        C  0.70350146  0.11161289  0.58765957     0.13480
C826        C  0.66156953  0.07871719  0.62251020    -0.20880
C827        C  0.60805880  0.06169469  0.60912349    -0.07400
C828        C  0.59748110  0.08063057  0.56013123     0.13460
C829        C  0.54275180  0.06041455  0.53551918    -0.24230
H830        H  0.63000751  0.13397295  0.49531026     0.14750
H831        H  0.67067448  0.06395647  0.65867305     0.14780
C832        C  0.75764213  0.11861180  0.59926557    -0.24180
H833        H  0.54342452  0.07861461  0.49605428     0.04990
H834        H  0.51679213  0.06781790  0.56315630     0.08220
H835        H  0.52509849  0.01876474  0.52682537     0.08220
H836        H  0.77319345  0.14071254  0.63818372     0.08200
H837        H  0.78579119  0.13806801  0.56583955     0.08200
H838        H  0.75517562  0.08063086  0.60322815     0.04980
C839        C  0.43523936  0.25645116  0.91940019    -0.20830
C840        C  0.48469927  0.26783035  0.94190003    -0.07390
C841        C  0.52921902  0.31331125  0.92503373     0.13480
C842        C  0.52253789  0.35073131  0.89915532    -0.20880
C843        C  0.47288413  0.34275140  0.88393694    -0.07400
C844        C  0.42861977  0.29380177  0.89115101     0.13460
C845        C  0.37427425  0.28222523  0.87302219    -0.24230
H846        H  0.40081949  0.22039850  0.92904833     0.14750
H847        H  0.55711208  0.38582622  0.88764022     0.14780
C848        C  0.58399973  0.32077364  0.92647671    -0.24180
H849        H  0.34393953  0.24273801  0.88345451     0.04990
H850        H  0.37332880  0.28608993  0.82797698     0.08220
H851        H  0.36371691  0.30919532  0.89408941     0.08220
H852        H  0.59604594  0.31791332  0.96834490     0.08200
H853        H  0.61296853  0.35845645  0.41094153     0.08200
H854        H  0.58597449  0.29341650  0.89704903     0.04980
C855        C  0.50106501  0.33593597  0.61932240    -0.20830
C856        C  0.45848447  0.34442196  0.61012247    -0.07390
C857        C  0.42125850  0.31492608  0.56940998     0.13480
C858        C  0.42677891  0.27627799  0.54128099    -0.20880
C859        C  0.47362112  0.27239127  0.54458524    -0.07400
C860        C  0.51121539  0.30348356  0.58532811     0.13460
C861        C  0.56272469  0.30473762  0.59470991    -0.24230
H862        H  0.52858100  0.35711414  0.65204036     0.14750
H863        H  0.39559930  0.25180826  0.51322659     0.14780
C864        C  0.37737046  0.32490346  0.55217816    -0.24180
H865        H  0.58879180  0.33600443  0.62347020     0.04990
H866        H  0.58477976  0.31167709  0.55611624     0.08220
H867        H  0.55462785  0.26929682  0.61502288     0.08220
H868        H  0.38172607  0.36080448  0.57051029     0.08200
H869        H  0.33857761  0.29222374  0.56344635     0.08200
H870        H  0.37856398  0.32941420  0.50702044     0.04980
C871        C  0.43529389  0.12642310  0.93785604    -0.20830
C872        C  0.48516443  0.16814069  0.95243165    -0.07390
C873        C  0.53037125  0.17011308  0.92722133     0.13480
C874        C  0.52570756  0.13124566  0.89152481    -0.20880
C875        C  0.47700489  0.08940583  0.87897872    -0.07400
C876        C  0.43076961  0.08691928  0.90144960     0.13460
C877        C  0.37740467  0.04217606  0.88827846    -0.24230
H878        H  0.39996753  0.12366486  0.95658098     0.14750
H879        H  0.56119480  0.13333844  0.87368467     0.14780
C880        C  0.58499108  0.21209530  0.93580255    -0.24180
H881        H  0.34517496  0.04572352  0.90942898     0.04990
H882        H  0.37612032  0.00630368  0.90146467     0.08220
H883        H  0.37015225  0.03985875  0.84340991     0.08220
H884        H  0.60910504  0.19708674  0.45495511     0.08200
H885        H  0.58585833  0.24231552  0.46127517     0.08200
H886        H  0.60134381  0.22851994  0.89542442     0.04980
C887        C  0.52012122  0.14402587  0.62420591    -0.20830
C888        C  0.46955229  0.10521458  0.63800861    -0.07390
C889        C  0.42514224  0.10480735  0.61343235     0.13480
C890        C  0.43326666  0.14175380  0.57382922    -0.20880
C891        C  0.48445482  0.17685689  0.55558071    -0.07400
C892        C  0.52852419  0.17766003  0.58221758     0.13460
C893        C  0.58587629  0.21167708  0.56852769    -0.24230
H894        H  0.55487923  0.14565043  0.64291084     0.14750
H895        H  0.39932052  0.14061493  0.55386326     0.14780
C896        C  0.36952747  0.06529707  0.62756089    -0.24180
H897        H  0.60233061  0.18891607  0.54870184     0.04990
H898        H  0.60902863  0.22931263  0.60664741     0.08220
H899        H  0.59224863  0.24366427  0.54342109     0.08220
H900        H  0.36344338  0.06610846  0.67246467     0.08200
H901        H  0.36222790  0.02673674  0.61433217     0.08200
H902        H  0.33978497  0.07246694  0.60668307     0.04980
C903        C  0.70596226  0.54283446  0.92703570    -0.20830
C904        C  0.71623417  0.50306677  0.93914757    -0.07390
C905        C  0.70065625  0.46226070  0.90014844     0.13480
C906        C  0.66636476  0.45789581  0.85652379    -0.20880
C907        C  0.64909520  0.49416791  0.84966483    -0.07400
C908        C  0.67302499  0.53932127  0.88337004     0.13460
C909        C  0.66144119  0.58293433  0.87750072    -0.24230
H910        H  0.71994693  0.57513290  0.95547869     0.14750
H911        H  0.65075961  0.42455882  0.82950880     0.14780
C912        C  0.71730933  0.42193845  0.90534388    -0.24180
H913        H  0.68598111  0.61562943  0.90556127     0.04990
H914        H  0.61946973  0.56999154  0.88805225     0.08220
H915        H  0.67023942  0.59743491  0.83506354     0.08220
H916        H  0.70774245  0.40467517  0.94641688     0.08200
H917        H  0.76024947  0.43868441  0.89805674     0.08200
H918        H  0.69772377  0.39088685  0.87406098     0.04980
C919        C  0.60407575  0.46379641  0.58102401    -0.20830
C920        C  0.62213584  0.49862602  0.62484575    -0.07390
C921        C  0.67518773  0.53795267  0.62557858     0.13480
C922        C  0.70947173  0.53967100  0.58291237    -0.20880
C923        C  0.69194557  0.50202185  0.54039375    -0.07400
C924        C  0.63747258  0.46497827  0.53912582     0.13460
C925        C  0.61323568  0.42508122  0.49491522    -0.24230
H926        H  0.56279380  0.43479945  0.57962755     0.14750
H927        H  0.75026136  0.56987374  0.58333842     0.14780
C928        C  0.69567403  0.57665471  0.67187207    -0.24180
H929        H  0.61197908  0.44325102  0.45642767     0.04990
H930        H  0.57190773  0.39596443  0.50442183     0.08220
H931        H  0.63643872  0.40510390  0.49035924     0.08220
H932        H  0.69062992  0.55695557  0.71133179     0.08200
H933        H  0.67331142  0.59808653  0.67336923     0.08200
H934        H  0.73833390  0.60445174  0.66679778     0.04980
C935        C  0.83181039  0.54232106  0.59682600    -0.20830
C936        C  0.78680651  0.50004960  0.57463244    -0.07390
C937        C  0.75772485  0.45688531  0.60814392     0.13480
C938        C  0.77935979  0.45430959  0.65855016    -0.20880
C939        C  0.83030414  0.49203446  0.67435123    -0.07400
C940        C  0.85331326  0.53925098  0.64709280     0.13460
C941        C  0.89958457  0.58652159  0.67106401    -0.24230
H942        H  0.85190716  0.57682162  0.57315077     0.14750
H943        H  0.75949547  0.41940726  0.68157386     0.14780
C944        C  0.70798299  0.41008590  0.58953000    -0.24180
H945        H  0.91004592  0.62050226  0.64569623     0.04990
H946        H  0.93516716  0.58210177  0.67394435     0.08220
H947        H  0.88918118  0.59442320  0.71265153     0.08220
H948        H  0.71181295  0.37531450  0.59504618     0.08200
H949        H  0.69966624  0.41092648  0.54576206     0.08200
H950        H  0.67424415  0.40682379  0.61431257     0.04980
C951        C  0.83327810  0.53417184  0.92872814    -0.20830
C952        C  0.81905447  0.50365711  0.97597042    -0.07390
C953        C  0.84743438  0.47670791  0.98614427     0.13480
C954        C  0.88778101  0.48191508  0.95062625    -0.20880
C955        C  0.89399286  0.50333251  0.89871039    -0.07400
C956        C  0.86730506  0.53147358  0.88826595     0.13460
C957        C  0.87330213  0.55792245  0.83480898    -0.24230
H958        H  0.81577868  0.55829134  0.92173726     0.14750
H959        H  0.90982641  0.46247951  0.96080486     0.14780
C960        C  0.83338042  0.43786846  0.03064537    -0.24180
H961        H  0.85139889  0.57981161  0.83482875     0.04990
H962        H  0.85701111  0.52924396  0.80089945     0.08220
H963        H  0.91558549  0.58503278  0.82705269     0.08220
H964        H  0.79030500  0.41090034  0.52992795     0.08200
H965        H  0.84700947  0.45713614  0.57103119     0.08200
H966        H  0.85299747  0.41410288  0.52480798     0.04980
loop_ 
_geom_bond_atom_site_label_1 
_geom_bond_atom_site_label_2 
_geom_bond_distance 
_geom_bond_site_symmetry_2 
_ccdc_geom_bond_type 
C1          C453   1.501       .  S
C1          C952   1.526   1_554  S
C1          C485   1.382   1_554  D
C2          C421   1.510       .  S
C2          C923   1.525       .  S
C2          C484   1.382       .  D
C3          C389   1.516       .  S
C3          C891   1.501       .  S
C3            C4   1.381       .  D
C4          C357   1.509       .  S
C4          C859   1.527       .  S
C5          C325   1.525       .  S
C5          C824   1.521       .  S
C5          C489   1.384       .  D
C6          C293   1.506       .  S
C6          C792   1.497   1_554  S
C6          C488   1.384   1_554  D
C7          C261   1.485       .  S
C7          C760   1.526       .  S
C7            C8   1.377       .  D
C8          C229   1.512       .  S
C8          C728   1.494       .  S
C9          C216   1.509   1_556  S
C9          C680   1.498       .  S
C9          C493   1.370   1_556  D
C10         C168   1.501       .  S
C10         C664   1.495       .  S
C10         C492   1.370       .  D
C11         C104   1.518       .  S
C11         C600   1.499       .  S
C11         C495   1.374       .  D
C12         C152   1.503   1_556  S
C12         C619   1.495       .  S
C12         C494   1.374       .  D
O13          C21   1.261       .  A
O13         Co33   1.972       .  S
O14          C22   1.253       .  A
O14         Co34   1.990   1_455  S
O15          C23   1.245       .  A
O15         Co35   1.973       .  S
O16          C24   1.271       .  A
O16         Co36   2.034       .  S
O17          C23   1.257       .  A
O17         Co34   2.010       .  S
O18          C24   1.258       .  A
O18         Co33   1.965   1_455  S
O19          C22   1.248       .  A
O19         Co36   1.973       .  S
O20          C21   1.272       .  A
O20         Co35   2.010       .  S
C21         C312   1.479       .  S
C22         C213   1.485       .  S
C23         C296   1.485       .  S
C24         C200   1.495       .  S
O25          C38   1.269       .  A
O25         Co33   2.031   1_455  S
O26          C39   1.297       .  A
O26         Co34   2.071       .  S
O27          C40   1.261       .  A
O27         Co35   2.001       .  S
O28          C41   1.272       .  A
O28         Co36   1.882       .  S
O29          C41   1.301       .  A
O29         Co34   2.082   1_455  S
O30          C40   1.269       .  A
O30         Co33   2.005       .  S
O31          C38   1.257       .  A
O31         Co36   1.988       .  S
O32          C39   1.275       .  A
O32         Co35   1.902       .  S
Co33         O37   2.062       .  S
Co34         O37   2.235       .  S
Co35         O37   1.956       .  S
Co36         O37   1.938   1_455  S
C38         C133   1.483       .  S
C39         C456   1.486       .  S
C40         C472   1.507       .  S
C41         C149   1.486       .  S
O42          C50   1.262       .  A
O42         Co62   2.017       .  S
O43          C51   1.276       .  A
O43         Co63   2.006       .  S
O44          C52   1.252       .  A
O44         Co64   1.959       .  S
O45          C53   1.264       .  A
O45         Co65   1.886       .  S
O46          C52   1.278       .  A
O46         Co63   2.033       .  S
O47          C53   1.303       .  A
O47         Co62   2.126       .  S
O48          C51   1.267       .  A
O48         Co65   1.977       .  S
O49          C50   1.255       .  A
O49         Co64   1.977       .  S
C50         C373   1.479       .  S
C51         C165   1.482       .  S
C52         C360   1.476       .  S
C53         C184   1.485       .  S
O54          C67   1.264       .  A
O54         Co62   1.887       .  S
O55          C68   1.255       .  A
O55         Co63   1.959       .  S
O56          C69   1.275       .  A
O56         Co64   2.009       .  S
O57          C70   1.264       .  A
O57         Co65   2.003       .  S
O58          C70   1.259       .  A
O58         Co63   1.982       .  S
O59          C69   1.270       .  A
O59         Co62   1.988       .  S
O60          C67   1.298       .  A
O60         Co65   2.117       .  S
O61          C68   1.279       .  A
O61         Co64   2.063       .  S
Co62         O66   2.007       .  S
Co63         O66   2.020       .  S
Co64         O66   2.034       .  S
Co65         O66   2.002       .  S
C67         C248   1.475       .  S
C68         C424   1.509       .  S
C69         C437   1.476       .  S
C70         C232   1.493       .  S
O71          C79   1.259       .  A
O71         Co91   1.985   1_545  S
O72          C80   1.291       .  A
O72         Co92   2.056       .  S
O73          C81   1.277       .  A
O73         Co93   1.901       .  S
O74          C82   1.257       .  A
O74         Co94   1.989       .  S
O75          C81   1.291       .  A
O75         Co92   2.053   1_545  S
O76          C82   1.272       .  A
O76         Co91   2.030       .  S
O77          C80   1.268       .  A
O77         Co94   1.897       .  S
O78          C79   1.270       .  A
O78         Co93   2.021       .  S
C79         C344   1.513       .  S
C80         C264   1.465       .  S
C81         C328   1.494       .  S
C82         C280   1.482       .  S
O83          C96   1.263       .  A
O83         Co91   1.979       .  S
O84          C97   1.250       .  A
O84         Co92   1.998   1_545  S
O85          C98   1.271       .  A
O85         Co93   1.972       .  S
O86          C99   1.248       .  A
O86         Co94   1.978       .  S
O87          C99   1.254       .  A
O87         Co92   1.988       .  S
O88          C98   1.272       .  A
O88         Co91   2.000   1_545  S
O89          C96   1.264       .  A
O89         Co94   1.992       .  S
O90          C97   1.243       .  A
O90         Co93   1.981       .  S
Co91         O95   2.082       .  S
Co92         O95   2.256       .  S
Co93         O95   1.925   1_545  S
Co94         O95   1.926       .  S
C96         C120   1.488       .  S
C97         C392   1.475       .  S
C98         C405   1.490       .  S
C99         C101   1.493       .  S
C100        C101   1.412       .  A
C100        C105   1.417       .  A
C100        H107   1.084       .  S
C101        C102   1.416       .  A
C102        C103   1.391       .  A
C102        C109   1.516       .  S
C103        C104   1.410       .  A
C103        H108   1.078       .  S
C104        C105   1.420       .  A
C105        C106   1.502       .  S
C106        H110   1.111       .  S
C106        H111   1.106       .  S
C106        H112   1.110       .  S
C109        H113   1.110       .  S
C109        H114   1.105       .  S
C109        H115   1.111       .  S
C116        C117   1.399       .  A
C116        C121   1.393       .  A
C116        H123   1.076       .  S
C117        C494   1.499   1_554  S
C117        C118   1.408       .  A
C118        C119   1.404       .  A
C118        C125   1.505       .  S
C119        C120   1.410       .  A
C119        H124   1.084       .  S
C120        C121   1.420       .  A
C121        C122   1.504       .  S
C122        H126   1.111       .  S
C122        H127   1.110       .  S
C122        H128   1.107       .  S
C125        H129   1.110       .  S
C125        H130   1.109       .  S
C125        H131   1.111       .  S
C132        C133   1.402       .  A
C132        C137   1.408       .  A
C132        H139   1.078       .  S
C133        C134   1.406       .  A
C134        C135   1.401       .  A
C134        C141   1.496       .  S
C135        C136   1.407       .  A
C135        H140   1.083       .  S
C136        C495   1.495       .  S
C136        C137   1.417       .  A
C137        C138   1.505       .  S
C138        H142   1.110       .  S
C138        H626   1.111       .  S
C138        H627   1.105       .  S
C141        H145   1.104   1_455  S
C141        H146   1.109       .  S
C141        H147   1.111       .  S
H143        C621   1.111       .  S
H144        C621   1.105       .  S
C148        C149   1.403       .  A
C148        C153   1.396       .  A
C148        H155   1.085       .  S
C149        C150   1.415       .  A
C150        C151   1.408       .  A
C150        C157   1.502       .  S
C151        C152   1.406       .  A
C151        H156   1.084       .  S
C152        C153   1.417       .  A
C153        C154   1.505       .  S
C154        H158   1.111       .  S
C154        H159   1.111       .  S
C154        H160   1.098   1_554  S
C157        H161   1.110       .  S
C157        H162   1.106       .  S
C157        H163   1.111       .  S
C164        C165   1.400       .  A
C164        C169   1.392       .  A
C164        H171   1.084       .  S
C165        C166   1.414       .  A
C166        C167   1.412       .  A
C166        C173   1.505       .  S
C167        C168   1.410       .  A
C167        H172   1.083       .  S
C168        C169   1.416       .  A
C169        C170   1.504       .  S
C170        H174   1.108       .  S
C170        H658   1.100       .  S
C170        H659   1.109       .  S
C173        H177   1.107       .  S
C173        H178   1.110       .  S
C173        H179   1.111       .  S
H175        C653   1.100   1_554  S
H176        C653   1.109       .  S
C180        C181   1.408       .  A
C180        C185   1.401       .  A
C180        H187   1.084       .  S
C181        C493   1.495       .  S
C181        C182   1.421       .  A
C182        C183   1.406       .  A
C182        C189   1.509       .  S
C183        C184   1.406       .  A
C183        H188   1.084       .  S
C184        C185   1.405       .  A
C185        C186   1.506       .  S
C186        H190   1.110       .  S
C186        H191   1.110       .  S
C186        H192   1.103       .  S
C189        H193   1.110       .  S
C189        H194   1.104       .  S
C189        H195   1.110       .  S
C196        C197   1.407       .  A
C196        C201   1.409       .  A
C196        H203   1.083       .  S
C197        C492   1.498       .  S
C197        C198   1.409       .  A
C198        C199   1.399       .  A
C198        C205   1.508       .  S
C199        C200   1.409       .  A
C199        H204   1.084       .  S
C200        C201   1.417       .  A
C201        C202   1.504       .  S
C202        H206   1.111       .  S
C202        H207   1.100       .  S
C202        H208   1.111       .  S
C205        H209   1.107       .  S
C205        H210   1.110       .  S
C205        H211   1.111       .  S
C212        C213   1.406       .  A
C212        C217   1.409       .  A
C212        H219   1.084       .  S
C213        C214   1.417       .  A
C214        C215   1.396       .  A
C214        C221   1.511       .  S
C215        C216   1.407       .  A
C215        H220   1.083   1_554  S
C216        C217   1.419       .  A
C217        C218   1.504       .  S
C218        H222   1.110       .  S
C218        H223   1.110       .  S
C218        H224   1.107       .  S
C221        H225   1.104       .  S
C221        H226   1.110       .  S
C221        H227   1.111   1_554  S
C228        C229   1.405       .  A
C228        C233   1.408       .  A
C228        H235   1.080       .  S
C229        C230   1.421       .  A
C230        C231   1.402       .  A
C230        C237   1.504       .  S
C231        C232   1.403       .  A
C231        H236   1.084       .  S
C232        C233   1.417       .  A
C233        C234   1.505       .  S
C234        H238   1.111       .  S
C234        H239   1.110       .  S
C234        H240   1.103       .  S
C237        H241   1.097       .  S
C237        H242   1.111       .  S
C237        H243   1.101       .  S
C244        C245   1.402       .  A
C244        C249   1.395       .  A
C244        H251   1.080       .  S
C245        C491   1.494   1_554  S
C245        C246   1.416       .  A
C246        C247   1.409       .  A
C246        C253   1.503       .  S
C247        C248   1.403       .  A
C247        H252   1.084       .  S
C248        C249   1.406       .  A
C249        C250   1.498       .  S
C250        H254   1.110       .  S
C250        H255   1.110       .  S
C250        H256   1.103       .  S
C253        H257   1.109       .  S
C253        H258   1.110       .  S
C253        H259   1.110       .  S
C260        C261   1.404       .  A
C260        C265   1.401       .  A
C260        H267   1.083       .  S
C261        C262   1.410       .  A
C262        C263   1.396       .  A
C262        C269   1.512       .  S
C263        C264   1.401       .  A
C263        H268   1.084       .  S
C264        C265   1.412       .  A
C265        C266   1.507       .  S
C266        H270   1.111       .  S
C266        H271   1.109       .  S
C266        H272   1.106       .  S
C269        H275   1.109       .  S
C269        H756   1.109       .  S
C269        H757   1.108       .  S
H273        C752   1.109   1_554  S
H274        C752   1.108   1_554  S
C276        C277   1.406       .  A
C276        C281   1.403       .  A
C276        H283   1.061       .  S
C277        C490   1.526   1_554  S
C277        C278   1.427       .  A
C278        C279   1.407       .  A
C278        C285   1.503       .  S
C279        C280   1.397       .  A
C279        H284   1.085       .  S
C280        C281   1.412       .  A
C281        C282   1.505       .  S
C282        H286   1.111       .  S
C282        H287   1.100       .  S
C282        H288   1.103       .  S
C285        H290   1.107   1_554  S
C285        H291   1.111       .  S
C285        H772   1.111   1_554  S
H289        C768   1.111       .  S
C292        C293   1.408       .  A
C292        C297   1.413       .  A
C292        H299   1.084       .  S
C293        C294   1.423       .  A
C294        C295   1.403       .  A
C294        C301   1.505       .  S
C295        C296   1.396       .  A
C295        H300   1.085       .  S
C296        C297   1.415       .  A
C297        C298   1.502       .  S
C298        H302   1.111       .  S
C298        H303   1.108       .  S
C298        H304   1.110       .  S
C301        H305   1.103       .  S
C301        H306   1.110       .  S
C301        H307   1.111       .  S
C308        C309   1.408       .  A
C308        C313   1.395       .  A
C308        H315   1.083       .  S
C309        C489   1.497       .  S
C309        C310   1.416       .  A
C310        C311   1.408       .  A
C310        C317   1.505       .  S
C311        C312   1.408       .  A
C311        H316   1.084       .  S
C312        C313   1.409       .  A
C313        C314   1.504       .  S
C314        H318   1.110       .  S
C314        H319   1.110       .  S
C314        H320   1.092       .  S
C317        H321   1.107       .  S
C317        H322   1.110       .  S
C317        H323   1.110       .  S
C324        C325   1.410       .  A
C324        C329   1.413       .  A
C324        H331   1.084       .  S
C325        C326   1.424       .  A
C326        C327   1.397       .  A
C326        C333   1.489       .  S
C327        C328   1.393       .  A
C327        H332   1.085       .  S
C328        C329   1.421       .  A
C329        C330   1.507       .  S
C330        H334   1.111   1_545  S
C330        H335   1.110   1_545  S
C330        H336   1.110   1_545  S
C333        H337   1.099       .  S
C333        H338   1.108       .  S
C333        H339   1.099       .  S
C340        C341   1.401       .  A
C340        C345   1.398       .  A
C340        H347   1.083   1_554  S
C341        C488   1.521   1_554  S
C341        C342   1.424       .  A
C342        C343   1.422       .  A
C342        C349   1.502       .  S
C343        C344   1.411       .  A
C343        H348   1.084       .  S
C344        C345   1.430       .  A
C345        C346   1.515       .  S
C346        H350   1.111   1_554  S
C346        H351   1.103       .  S
C346        H352   1.110       .  S
C349        H353   1.110       .  S
C349        H354   1.103       .  S
C349        H355   1.111       .  S
C356        C357   1.411       .  A
C356        C361   1.415       .  A
C356        H363   1.084       .  S
C357        C358   1.412       .  A
C358        C359   1.390       .  A
C358        C365   1.488       .  S
C359        C360   1.387       .  A
C359        H364   1.082       .  S
C360        C361   1.415       .  A
C361        C362   1.502       .  S
C362        H366   1.111       .  S
C362        H367   1.109       .  S
C362        H368   1.109       .  S
C365        H369   1.100       .  S
C365        H371   1.100       .  S
C365        H853   1.102       .  S
H370        C848   1.102       .  S
C372        C373   1.392       .  A
C372        C377   1.400       .  A
C372        H379   1.081       .  S
C373        C374   1.407       .  A
C374        C375   1.408       .  A
C374        C381   1.502       .  S
C375        C376   1.417       .  A
C375        H380   1.078       .  S
C376        C487   1.527   1_554  S
C376        C377   1.424       .  A
C377        C378   1.490       .  S
C378        H382   1.110       .  S
C378        H383   1.099       .  S
C378        H384   1.098       .  S
C381        H385   1.105       .  S
C381        H386   1.110       .  S
C381        H387   1.111       .  S
C388        C389   1.415       .  A
C388        C393   1.419       .  A
C388        H395   1.083       .  S
C389        C390   1.416       .  A
C390        C391   1.393       .  A
C390        C397   1.477       .  S
C391        C392   1.386       .  A
C391        H396   1.086       .  S
C392        C393   1.410       .  A
C393        C394   1.503       .  S
C394        H398   1.111       .  S
C394        H399   1.111       .  S
C394        H400   1.110       .  S
C397        H403   1.106       .  S
C397        H884   1.106       .  S
C397        H885   1.078       .  S
H401        C880   1.106       .  S
H402        C880   1.078       .  S
C404        C405   1.400       .  A
C404        C409   1.387       .  A
C404        H411   1.085       .  S
C405        C406   1.415       .  A
C406        C407   1.414       .  A
C406        C413   1.505       .  S
C407        C408   1.411       .  A
C407        H412   1.083       .  S
C408        C486   1.501       .  S
C408        C409   1.423       .  A
C409        C410   1.504       .  S
C410        H414   1.106       .  S
C410        H415   1.112       .  S
C410        H416   1.085       .  S
C413        H417   1.110       .  S
C413        H418   1.109       .  S
C413        H419   1.111       .  S
C420        C421   1.397       .  A
C420        C425   1.401       .  A
C420        H427   1.085       .  S
C421        C422   1.423       .  A
C422        C423   1.419       .  A
C422        C429   1.509       .  S
C423        C424   1.411       .  A
C423        H428   1.083       .  S
C424        C425   1.427       .  A
C425        C426   1.507       .  S
C426        H430   1.111       .  S
C426        H431   1.110       .  S
C426        H432   1.110       .  S
C429        H433   1.108       .  S
C429        H434   1.104       .  S
C429        H435   1.110       .  S
C436        C437   1.391       .  A
C436        C441   1.391       .  A
C436        H443   1.082       .  S
C437        C438   1.408       .  A
C438        C439   1.417       .  A
C438        C445   1.503       .  S
C439        C440   1.417       .  A
C439        H444   1.082       .  S
C440        C485   1.525   1_554  S
C440        C441   1.419       .  A
C441        C442   1.492   1_554  S
C442        H446   1.104       .  S
C442        H447   1.111   1_556  S
C442        H448   1.098       .  S
C445        H449   1.111       .  S
C445        H450   1.110       .  S
C445        H451   1.111       .  S
C452        C453   1.403       .  A
C452        C457   1.403       .  A
C452        H459   1.084       .  S
C453        C454   1.423       .  A
C454        C455   1.403       .  A
C454        C461   1.504       .  S
C455        C456   1.402       .  A
C455        H460   1.084       .  S
C456        C457   1.415       .  A
C457        C458   1.507       .  S
C458        H462   1.111       .  S
C458        H463   1.102       .  S
C458        H464   1.110       .  S
C461        H465   1.110       .  S
C461        H466   1.100       .  S
C461        H467   1.109       .  S
C468        C469   1.416       .  A
C468        C473   1.418       .  A
C468        H475   1.080       .  S
C469        C484   1.526       .  S
C469        C470   1.428       .  A
C470        C471   1.397       .  A
C470        C477   1.511       .  S
C471        C472   1.402       .  A
C471        H476   1.084       .  S
C472        C473   1.419       .  A
C473        C474   1.505       .  S
C474        H478   1.111       .  S
C474        H479   1.108       .  S
C474        H480   1.108       .  S
C477        H964   1.107       .  S
C477        H965   1.104       .  S
C477        H966   1.111       .  S
H481        C960   1.107       .  S
H482        C960   1.104       .  S
H483        C960   1.111       .  S
C484        C936   1.501       .  S
C485        C904   1.510       .  S
C486        C872   1.516   1_554  S
C486        C487   1.381   1_554  D
C487        C840   1.509       .  S
C488        C808   1.525       .  S
C489        C776   1.506       .  S
C490        C744   1.485       .  S
C490        C491   1.377       .  D
C491        C712   1.512       .  S
C492        C699   1.509       .  S
C493        C651   1.501   1_554  S
C494        C587   1.518       .  S
C495        C635   1.503       .  S
O496        C504   1.261       .  A
O496       Co516   1.972       .  S
O497        C505   1.253       .  A
O497       Co517   1.990   1_455  S
O498        C506   1.245       .  A
O498       Co518   1.973       .  S
O499        C507   1.271       .  A
O499       Co519   2.034       .  S
O500        C506   1.257       .  A
O500       Co517   2.010       .  S
O501        C507   1.258       .  A
O501       Co516   1.965   1_455  S
O502        C505   1.248       .  A
O502       Co519   1.973       .  S
O503        C504   1.272       .  A
O503       Co518   2.010       .  S
C504        C795   1.479       .  S
C505        C696   1.485       .  S
C506        C779   1.485       .  S
C507        C683   1.495       .  S
O508        C521   1.269       .  A
O508       Co516   2.031   1_455  S
O509        C522   1.297       .  A
O509       Co517   2.071       .  S
O510        C523   1.261       .  A
O510       Co518   2.001       .  S
O511        C524   1.272       .  A
O511       Co519   1.882       .  S
O512        C524   1.301       .  A
O512       Co517   2.082   1_455  S
O513        C523   1.269       .  A
O513       Co516   2.005       .  S
O514        C521   1.257       .  A
O514       Co519   1.988       .  S
O515        C522   1.275       .  A
O515       Co518   1.902       .  S
Co516       O520   2.062       .  S
Co517       O520   2.235       .  S
Co518       O520   1.956       .  S
Co519       O520   1.938   1_455  S
C521        C616   1.483       .  S
C522        C939   1.486       .  S
C523        C955   1.507       .  S
C524        C632   1.486       .  S
O525        C533   1.262       .  A
O525       Co545   2.017       .  S
O526        C534   1.276       .  A
O526       Co546   2.006       .  S
O527        C535   1.252       .  A
O527       Co547   1.959       .  S
O528        C536   1.264       .  A
O528       Co548   1.886       .  S
O529        C535   1.278       .  A
O529       Co546   2.033       .  S
O530        C536   1.303       .  A
O530       Co545   2.126       .  S
O531        C534   1.267       .  A
O531       Co548   1.977       .  S
O532        C533   1.255       .  A
O532       Co547   1.977       .  S
C533        C856   1.479       .  S
C534        C648   1.482       .  S
C535        C843   1.476       .  S
C536        C667   1.485       .  S
O537        C550   1.264       .  A
O537       Co545   1.887       .  S
O538        C551   1.255       .  A
O538       Co546   1.959       .  S
O539        C552   1.275       .  A
O539       Co547   2.009       .  S
O540        C553   1.264       .  A
O540       Co548   2.003       .  S
O541        C553   1.259       .  A
O541       Co546   1.982       .  S
O542        C552   1.270       .  A
O542       Co545   1.988       .  S
O543        C550   1.298       .  A
O543       Co548   2.117       .  S
O544        C551   1.279       .  A
O544       Co547   2.063       .  S
Co545       O549   2.007       .  S
Co546       O549   2.020       .  S
Co547       O549   2.034       .  S
Co548       O549   2.002       .  S
C550        C731   1.475       .  S
C551        C907   1.509       .  S
C552        C920   1.476       .  S
C553        C715   1.493       .  S
O554        C562   1.259       .  A
O554       Co574   1.984   1_545  S
O555        C563   1.291       .  A
O555       Co575   2.056       .  S
O556        C564   1.277       .  A
O556       Co576   1.901       .  S
O557        C565   1.257       .  A
O557       Co577   1.989       .  S
O558        C564   1.291       .  A
O558       Co575   2.053   1_545  S
O559        C565   1.272       .  A
O559       Co574   2.030       .  S
O560        C563   1.268       .  A
O560       Co577   1.897       .  S
O561        C562   1.270       .  A
O561       Co576   2.021       .  S
C562        C827   1.513       .  S
C563        C747   1.465       .  S
C564        C811   1.494       .  S
C565        C763   1.482       .  S
O566        C579   1.263       .  A
O566       Co574   1.979       .  S
O567        C580   1.250       .  A
O567       Co575   1.998   1_545  S
O568        C581   1.271       .  A
O568       Co576   1.972       .  S
O569        C582   1.248       .  A
O569       Co577   1.978       .  S
O570        C582   1.254       .  A
O570       Co575   1.988       .  S
O571        C581   1.272       .  A
O571       Co574   2.000   1_545  S
O572        C579   1.264       .  A
O572       Co577   1.992       .  S
O573        C580   1.243       .  A
O573       Co576   1.981       .  S
Co574       O578   2.082       .  S
Co575       O578   2.256       .  S
Co576       O578   1.925   1_545  S
Co577       O578   1.926       .  S
C579        C603   1.488       .  S
C580        C875   1.475       .  S
C581        C888   1.490       .  S
C582        C584   1.493       .  S
C583        C584   1.412       .  A
C583        C588   1.417       .  A
C583        H590   1.084       .  S
C584        C585   1.416       .  A
C585        C586   1.391       .  A
C585        C592   1.516       .  S
C586        C587   1.410       .  A
C586        H591   1.078   1_556  S
C587        C588   1.420       .  A
C588        C589   1.502       .  S
C589        H593   1.111       .  S
C589        H594   1.106       .  S
C589        H595   1.110       .  S
C592        H596   1.110       .  S
C592        H597   1.105       .  S
C592        H598   1.111   1_556  S
C599        C600   1.399       .  A
C599        C604   1.393       .  A
C599        H606   1.076       .  S
C600        C601   1.408       .  A
C601        C602   1.404       .  A
C601        C608   1.505       .  S
C602        C603   1.410       .  A
C602        H607   1.084       .  S
C603        C604   1.420       .  A
C604        C605   1.504       .  S
C605        H609   1.111       .  S
C605        H610   1.110       .  S
C605        H611   1.107       .  S
C608        H612   1.110       .  S
C608        H613   1.109       .  S
C608        H614   1.111       .  S
C615        C616   1.402       .  A
C615        C620   1.408       .  A
C615        H622   1.078       .  S
C616        C617   1.406       .  A
C617        C618   1.401       .  A
C617        C624   1.496       .  S
C618        C619   1.407       .  A
C618        H623   1.083       .  S
C619        C620   1.417       .  A
C620        C621   1.505       .  S
C621        H625   1.110       .  S
C624        H628   1.104   1_455  S
C624        H629   1.109       .  S
C624        H630   1.111       .  S
C631        C632   1.403       .  A
C631        C636   1.396       .  A
C631        H638   1.085       .  S
C632        C633   1.415       .  A
C633        C634   1.408       .  A
C633        C640   1.502       .  S
C634        C635   1.406       .  A
C634        H639   1.084       .  S
C635        C636   1.417       .  A
C636        C637   1.505       .  S
C637        H641   1.111       .  S
C637        H642   1.111       .  S
C637        H643   1.098       .  S
C640        H644   1.110       .  S
C640        H645   1.106       .  S
C640        H646   1.111       .  S
C647        C648   1.400       .  A
C647        C652   1.392       .  A
C647        H654   1.084       .  S
C648        C649   1.414       .  A
C649        C650   1.412       .  A
C649        C656   1.505       .  S
C650        C651   1.410       .  A
C650        H655   1.083       .  S
C651        C652   1.416       .  A
C652        C653   1.504       .  S
C653        H657   1.108       .  S
C656        H660   1.107       .  S
C656        H661   1.110       .  S
C656        H662   1.111       .  S
C663        C664   1.408       .  A
C663        C668   1.401       .  A
C663        H670   1.084       .  S
C664        C665   1.421       .  A
C665        C666   1.406       .  A
C665        C672   1.509       .  S
C666        C667   1.406       .  A
C666        H671   1.084       .  S
C667        C668   1.405       .  A
C668        C669   1.506       .  S
C669        H673   1.110       .  S
C669        H674   1.110       .  S
C669        H675   1.103       .  S
C672        H676   1.110       .  S
C672        H677   1.104       .  S
C672        H678   1.110       .  S
C679        C680   1.407       .  A
C679        C684   1.409       .  A
C679        H686   1.083       .  S
C680        C681   1.409       .  A
C681        C682   1.399       .  A
C681        C688   1.508       .  S
C682        C683   1.409       .  A
C682        H687   1.084       .  S
C683        C684   1.417       .  A
C684        C685   1.504       .  S
C685        H689   1.111       .  S
C685        H690   1.100       .  S
C685        H691   1.111       .  S
C688        H692   1.107       .  S
C688        H693   1.110       .  S
C688        H694   1.111       .  S
C695        C696   1.406       .  A
C695        C700   1.409       .  A
C695        H702   1.084       .  S
C696        C697   1.417       .  A
C697        C698   1.396       .  A
C697        C704   1.511       .  S
C698        C699   1.407       .  A
C698        H703   1.083       .  S
C699        C700   1.419       .  A
C700        C701   1.504       .  S
C701        H705   1.110       .  S
C701        H706   1.110       .  S
C701        H707   1.107       .  S
C704        H708   1.104       .  S
C704        H709   1.110       .  S
C704        H710   1.111       .  S
C711        C712   1.405       .  A
C711        C716   1.408       .  A
C711        H718   1.080       .  S
C712        C713   1.421       .  A
C713        C714   1.402       .  A
C713        C720   1.504       .  S
C714        C715   1.403       .  A
C714        H719   1.084       .  S
C715        C716   1.417       .  A
C716        C717   1.505       .  S
C717        H721   1.111       .  S
C717        H722   1.110       .  S
C717        H723   1.103       .  S
C720        H724   1.097       .  S
C720        H725   1.111       .  S
C720        H726   1.101       .  S
C727        C728   1.402       .  A
C727        C732   1.395       .  A
C727        H734   1.080       .  S
C728        C729   1.416       .  A
C729        C730   1.409       .  A
C729        C736   1.503       .  S
C730        C731   1.403       .  A
C730        H735   1.084       .  S
C731        C732   1.406       .  A
C732        C733   1.498       .  S
C733        H737   1.110       .  S
C733        H738   1.110       .  S
C733        H739   1.103       .  S
C736        H740   1.109       .  S
C736        H741   1.110       .  S
C736        H742   1.110       .  S
C743        C744   1.404       .  A
C743        C748   1.401       .  A
C743        H750   1.083       .  S
C744        C745   1.410       .  A
C745        C746   1.396       .  A
C745        C752   1.512       .  S
C746        C747   1.401       .  A
C746        H751   1.084       .  S
C747        C748   1.412       .  A
C748        C749   1.507       .  S
C749        H753   1.111       .  S
C749        H754   1.109       .  S
C749        H755   1.106       .  S
C752        H758   1.109       .  S
C759        C760   1.406       .  A
C759        C764   1.403       .  A
C759        H766   1.061       .  S
C760        C761   1.427       .  A
C761        C762   1.407       .  A
C761        C768   1.503       .  S
C762        C763   1.397       .  A
C762        H767   1.085       .  S
C763        C764   1.412       .  A
C764        C765   1.505       .  S
C765        H769   1.111       .  S
C765        H770   1.100       .  S
C765        H771   1.103       .  S
C768        H773   1.107       .  S
C768        H774   1.111       .  S
C775        C776   1.408       .  A
C775        C780   1.413       .  A
C775        H782   1.084       .  S
C776        C777   1.423       .  A
C777        C778   1.403       .  A
C777        C784   1.505       .  S
C778        C779   1.396       .  A
C778        H783   1.085       .  S
C779        C780   1.415       .  A
C780        C781   1.502       .  S
C781        H785   1.111       .  S
C781        H786   1.108       .  S
C781        H787   1.110       .  S
C784        H788   1.103       .  S
C784        H789   1.110       .  S
C784        H790   1.111       .  S
C791        C792   1.408       .  A
C791        C796   1.395       .  A
C791        H798   1.083       .  S
C792        C793   1.416       .  A
C793        C794   1.408       .  A
C793        C800   1.505       .  S
C794        C795   1.408       .  A
C794        H799   1.084       .  S
C795        C796   1.409       .  A
C796        C797   1.504       .  S
C797        H801   1.110       .  S
C797        H802   1.110       .  S
C797        H803   1.092       .  S
C800        H804   1.107       .  S
C800        H805   1.110       .  S
C800        H806   1.110       .  S
C807        C808   1.410       .  A
C807        C812   1.413       .  A
C807        H814   1.084       .  S
C808        C809   1.424       .  A
C809        C810   1.397       .  A
C809        C816   1.489       .  S
C810        C811   1.393       .  A
C810        H815   1.085       .  S
C811        C812   1.421       .  A
C812        C813   1.507       .  S
C813        H817   1.111   1_545  S
C813        H818   1.110   1_545  S
C813        H819   1.110   1_545  S
C816        H820   1.099       .  S
C816        H821   1.108       .  S
C816        H822   1.099       .  S
C823        C824   1.401       .  A
C823        C828   1.398       .  A
C823        H830   1.083       .  S
C824        C825   1.424       .  A
C825        C826   1.422       .  A
C825        C832   1.502       .  S
C826        C827   1.411       .  A
C826        H831   1.084       .  S
C827        C828   1.430       .  A
C828        C829   1.515       .  S
C829        H833   1.111       .  S
C829        H834   1.103       .  S
C829        H835   1.110       .  S
C832        H836   1.110       .  S
C832        H837   1.103       .  S
C832        H838   1.111       .  S
C839        C840   1.411       .  A
C839        C844   1.415       .  A
C839        H846   1.084       .  S
C840        C841   1.412       .  A
C841        C842   1.390       .  A
C841        C848   1.488       .  S
C842        C843   1.387       .  A
C842        H847   1.082       .  S
C843        C844   1.415       .  A
C844        C845   1.502       .  S
C845        H849   1.111       .  S
C845        H850   1.109       .  S
C845        H851   1.109       .  S
C848        H852   1.100       .  S
C848        H854   1.100       .  S
C855        C856   1.392       .  A
C855        C860   1.400       .  A
C855        H862   1.081       .  S
C856        C857   1.407       .  A
C857        C858   1.408       .  A
C857        C864   1.502       .  S
C858        C859   1.417       .  A
C858        H863   1.078       .  S
C859        C860   1.424       .  A
C860        C861   1.490       .  S
C861        H865   1.110       .  S
C861        H866   1.099       .  S
C861        H867   1.098       .  S
C864        H868   1.105       .  S
C864        H869   1.110       .  S
C864        H870   1.111       .  S
C871        C872   1.415       .  A
C871        C876   1.419       .  A
C871        H878   1.083       .  S
C872        C873   1.416       .  A
C873        C874   1.393       .  A
C873        C880   1.477       .  S
C874        C875   1.386       .  A
C874        H879   1.086       .  S
C875        C876   1.410       .  A
C876        C877   1.503       .  S
C877        H881   1.111       .  S
C877        H882   1.111       .  S
C877        H883   1.110       .  S
C880        H886   1.106       .  S
C887        C888   1.400       .  A
C887        C892   1.387       .  A
C887        H894   1.085       .  S
C888        C889   1.415       .  A
C889        C890   1.414       .  A
C889        C896   1.505       .  S
C890        C891   1.411       .  A
C890        H895   1.083       .  S
C891        C892   1.423       .  A
C892        C893   1.504       .  S
C893        H897   1.106       .  S
C893        H898   1.112       .  S
C893        H899   1.085       .  S
C896        H900   1.110       .  S
C896        H901   1.109       .  S
C896        H902   1.111       .  S
C903        C904   1.397       .  A
C903        C908   1.401       .  A
C903        H910   1.085       .  S
C904        C905   1.423       .  A
C905        C906   1.419       .  A
C905        C912   1.509       .  S
C906        C907   1.411       .  A
C906        H911   1.083       .  S
C907        C908   1.427       .  A
C908        C909   1.507       .  S
C909        H913   1.111       .  S
C909        H914   1.110       .  S
C909        H915   1.110       .  S
C912        H916   1.108       .  S
C912        H917   1.104       .  S
C912        H918   1.110       .  S
C919        C920   1.391       .  A
C919        C924   1.391       .  A
C919        H926   1.082       .  S
C920        C921   1.408       .  A
C921        C922   1.417       .  A
C921        C928   1.503       .  S
C922        C923   1.417       .  A
C922        H927   1.082       .  S
C923        C924   1.419       .  A
C924        C925   1.492       .  S
C925        H929   1.104       .  S
C925        H930   1.111       .  S
C925        H931   1.098       .  S
C928        H932   1.111       .  S
C928        H933   1.110       .  S
C928        H934   1.111       .  S
C935        C936   1.403       .  A
C935        C940   1.403       .  A
C935        H942   1.084       .  S
C936        C937   1.423       .  A
C937        C938   1.403       .  A
C937        C944   1.504       .  S
C938        C939   1.402       .  A
C938        H943   1.084       .  S
C939        C940   1.415       .  A
C940        C941   1.507       .  S
C941        H945   1.111       .  S
C941        H946   1.102       .  S
C941        H947   1.110       .  S
C944        H948   1.110       .  S
C944        H949   1.100       .  S
C944        H950   1.109       .  S
C951        C952   1.416       .  A
C951        C956   1.418       .  A
C951        H958   1.080       .  S
C952        C953   1.428       .  A
C953        C954   1.397       .  A
C953        C960   1.511   1_556  S
C954        C955   1.402       .  A
C954        H959   1.084       .  S
C955        C956   1.419       .  A
C956        C957   1.505       .  S
C957        H961   1.111       .  S
C957        H962   1.108       .  S
C957        H963   1.108       .  S
