geometry optimzed in LAMMPS
_audit_creation_date              2020-11-30 
_audit_creation_method            'lammps2cif' 
_symmetry_space_group_name_H-M    'P1' 
_symmetry_Int_Tables_number       1 
_symmetry_cell_setting            triclinic 
loop_ 
_symmetry_equiv_pos_as_xyz 
  x,y,z 
_cell_length_a                    36.23410764 
_cell_length_b                    36.42357508498165 
_cell_length_c                    36.33533525759212 
_cell_angle_alpha                 89.99175320807979 
_cell_angle_beta                  90.08814662185925 
_cell_angle_gamma                 89.98905158689719 
loop_ 
_atom_site_label 
_atom_site_type_symbol 
_atom_site_fract_x 
_atom_site_fract_y 
_atom_site_fract_z 
_atom_site_charge 
O1          O  0.93139134  0.99693419  0.94212163    -0.78400
C2          C  0.02923343  0.93068906  0.92481858     0.82700
O3          O  0.95201125  0.93755233  0.05795608    -0.79500
O4          O  0.08083556  0.96333060  0.03285096    -0.81000
O5          O  0.03631712  0.07422581  0.97665149    -0.80800
O6          O  0.94718673  0.05507682  0.95196367    -0.79400
Zn7        Zn  0.96736802  0.96557672  0.96943865     1.55700
O8          O  0.07925920  0.03086310  0.97252094    -0.80800
Cd9        Cd  0.98847032  0.04691008  0.99179187     1.59700
Cd10       Cd  0.99053561  0.98013074  0.05339908     1.59600
O11         O  0.97197510  0.07055018  0.04099910    -0.80800
O12         O  0.99961451  0.99365122  0.00039858    -1.91300
Cd13       Cd  0.05227900  0.98247390  0.98699570     1.59900
O14         O  0.97240697  0.02575644  0.08255655    -0.80700
O15         O  0.05552563  0.94442554  0.94376327    -0.79400
C16         C  0.93518834  0.92051825  0.03225394     0.83100
C17         C  0.92672915  0.03105813  0.93653133     0.82800
O18         O  0.99564495  0.93750454  0.93203663    -0.78300
C19         C  0.06969662  0.06453720  0.97090668     0.83600
O20         O  0.93915357  0.92910791  0.99861158    -0.78400
C21         C  0.96763422  0.05938550  0.07404251     0.83700
C22         C  0.07284556  0.95960348  0.06682389     0.84100
O23         O  0.03990456  0.96444751  0.07835800    -0.80900
O24         O  0.06209582  0.24380818  0.19285564    -0.78400
C25         C  0.05945577  0.17098330  0.28731870     0.82700
O26         O  0.93974541  0.18581499  0.20402843    -0.79500
O27         O  0.95867838  0.22244018  0.33419061    -0.81000
O28         O  0.02123171  0.32413148  0.28705576    -0.80800
O29         O  0.04463518  0.30211658  0.19892269    -0.79400
Zn30       Zn  0.02732343  0.21370792  0.22264073     1.55700
O31         O  0.02751770  0.28179803  0.33075851    -0.80800
Cd32       Cd  0.00435408  0.29614439  0.24001126     1.59700
Cd33       Cd  0.94381262  0.22875263  0.24172571     1.59600
O34         O  0.95483667  0.32014663  0.22369559    -0.80800
O35         O  0.99595742  0.24322229  0.25274873    -1.91300
Cd36       Cd  0.00742311  0.23396006  0.30630811     1.59900
O37         O  0.91473495  0.27372399  0.22265199    -0.80700
O38         O  0.04381937  0.18947441  0.31275584    -0.79400
C39         C  0.96539543  0.17196746  0.18453720     0.83100
C40         C  0.06555011  0.27761538  0.18492407     0.82800
O41         O  0.05565468  0.17928859  0.25361435    -0.78300
C42         C  0.02913943  0.31523823  0.32011013     0.83600
O43         O  0.99886133  0.18169616  0.18818518    -0.78400
C44         C  0.92220523  0.30771505  0.21900745     0.83700
C45         C  0.92573705  0.21597618  0.32361674     0.84100
O46         O  0.91703467  0.21509609  0.28963481    -0.80900
O47         O  0.74514454  0.19294340  0.56329212    -0.78400
C48         C  0.67612579  0.28970182  0.57688652     0.82700
O49         O  0.69018494  0.21117141  0.44507133    -0.79500
O50         O  0.71448444  0.34099634  0.47164289    -0.81000
O51         O  0.82306856  0.29603786  0.52966887    -0.80800
O52         O  0.80398716  0.20702440  0.55346446    -0.79400
Zn53       Zn  0.71369644  0.22771551  0.53464622     1.55700
O54         O  0.77887195  0.33826485  0.53405476    -0.80800
Cd55       Cd  0.79630368  0.24845952  0.51409946     1.59700
Cd56       Cd  0.73029915  0.25154127  0.45142263     1.59600
O57         O  0.82173241  0.23244065  0.46560297    -0.80800
O58         O  0.74275406  0.25970200  0.50459578    -1.91300
Cd59       Cd  0.73103233  0.31189074  0.51769050     1.59900
O60         O  0.77675215  0.23424995  0.42393344    -0.80700
O61         O  0.69104697  0.31568917  0.55872910    -0.79400
C62         C  0.67386079  0.19247186  0.46981134     0.83100
C63         C  0.77932409  0.18727467  0.56875349     0.82800
O64         O  0.68322176  0.25614241  0.57032954    -0.78300
C65         C  0.81279643  0.32894231  0.53567285     0.83600
O66         O  0.68027230  0.19697078  0.50390692    -0.78400
C67         C  0.81041717  0.22907903  0.43250600     0.83700
C68         C  0.71142983  0.33335625  0.43756645     0.84100
O69         O  0.71509995  0.30052403  0.42578590    -0.80900
O70         O  0.75027913  0.06823428  0.68381977    -0.78400
C71         C  0.68757515  0.96907932  0.67722953     0.82700
O72         O  0.69646257  0.05729772  0.80423326    -0.79500
O73         O  0.72683814  0.92681069  0.78657943    -0.81000
O74         O  0.83382382  0.97505888  0.72241980    -0.80800
O75         O  0.80961619  0.06231269  0.69872519    -0.79400
Zn76       Zn  0.72050208  0.03549501  0.71622877     1.55700
O77         O  0.79256320  0.92980789  0.72331433    -0.80800
Cd78       Cd  0.80495007  0.02145338  0.73941137     1.59700
Cd79       Cd  0.73855858  0.01887670  0.80057712     1.59600
O80         O  0.83018299  0.03763771  0.78863808    -0.80800
O81         O  0.75182137  0.00747863  0.74837609    -1.91300
Cd82       Cd  0.74314008  0.95375232  0.73868881     1.59900
O83         O  0.78443231  0.03644829  0.82942706    -0.80700
O84         O  0.70421687  0.94517595  0.69682277    -0.79400
C85         C  0.67739354  0.07169504  0.77854706     0.83100
C86         C  0.78404769  0.07647514  0.67907388     0.82800
O87         O  0.69197349  0.00328003  0.68233509    -0.78300
C88         C  0.82553950  0.94121928  0.71859832     0.83600
O89         O  0.68389061  0.06537783  0.74472842    -0.78400
C90         C  0.81841392  0.04107226  0.82157191     0.83700
C91         C  0.72059563  0.93784096  0.81934602     0.84100
O92         O  0.72224008  0.97174690  0.82770733    -0.80900
O93         O  0.18487342  0.99616376  0.18846685    -0.78400
C94         C  0.16869134  0.05939164  0.28915747     0.82700
O95         O  0.29992290  0.05643884  0.20733334    -0.79500
O96         O  0.27854125  0.02709875  0.33613873    -0.81000
O97         O  0.22167828  0.91690420  0.29055740    -0.80800
O98         O  0.19758609  0.93776554  0.20145307    -0.79400
Zn99       Zn  0.21225448  0.02727477  0.22476372     1.55700
O100        O  0.21891406  0.95941576  0.33431243    -0.80800
Cd101      Cd  0.23688226  0.94536839  0.24335527     1.59700
Cd102      Cd  0.29680775  0.01383952  0.24553438     1.59600
O103        O  0.28688365  0.92253977  0.22731743    -0.80800
O104        O  0.24443120  0.99872870  0.25533654    -1.91300
Cd105      Cd  0.23227923  0.00836608  0.30838950     1.59900
O106        O  0.32631654  0.96936790  0.22640928    -0.80700
O107        O  0.18869603  0.04542905  0.31443582    -0.79400
C108        C  0.27373439  0.07364757  0.19143568     0.83100
C109        C  0.18068952  0.96203401  0.18247654     0.82800
O110        O  0.17506721  0.05334283  0.25527773    -0.78300
C111        C  0.21682054  0.92593508  0.32411365     0.83600
O112        O  0.24008138  0.06520275  0.19646476    -0.78400
C113        C  0.31935299  0.93531866  0.22256197     0.83700
C114        C  0.31227156  0.03185990  0.32747864     0.84100
O115        O  0.32317599  0.02887047  0.29421718    -0.80900
O116        O  0.05693564  0.50283514  0.56790402    -0.78400
C117        C  0.07821718  0.56616121  0.46974883     0.82700
O118        O  0.94159194  0.56241842  0.53917580    -0.79500
O119        O  0.97521123  0.53051705  0.41396516    -0.81000
O120        O  0.02543985  0.42107462  0.46508527    -0.80800
O121        O  0.04777744  0.44413851  0.55352916    -0.79400
Zn122      Zn  0.03075179  0.53307037  0.53042676     1.55700
O123        O  0.03415364  0.46259763  0.42118562    -0.80800
Cd124      Cd  0.00912969  0.45070543  0.51101590     1.59700
Cd125      Cd  0.94882401  0.51840082  0.50300914     1.59600
O126        O  0.95883531  0.42831226  0.52652587    -0.80800
O127        O  0.00196639  0.50365871  0.49759252    -1.91300
Cd128      Cd  0.01883176  0.51213003  0.44562012     1.59900
O129        O  0.91853315  0.47408425  0.52133896    -0.80700
O130        O  0.06166285  0.55039575  0.44309760    -0.79400
C131        C  0.96625940  0.57948550  0.55742278     0.83100
C132        C  0.06258880  0.46887482  0.57355667     0.82800
O133        O  0.06903817  0.56076774  0.50304263    -0.78300
C134        C  0.03364348  0.42919650  0.43197808     0.83600
O135        O  0.00002799  0.57020290  0.55624767    -0.78400
C136        C  0.92585810  0.44059536  0.52828137     0.83700
C137        C  0.94087536  0.53511877  0.41982906     0.84100
O138        O  0.92709246  0.53209015  0.45198954    -0.80900
O139        O  0.42482141  0.30608602  0.75187106    -0.78400
C140        C  0.42757225  0.21421884  0.82562108     0.82700
O141        O  0.54869333  0.29915349  0.80880628    -0.79500
O142        O  0.52875951  0.16882761  0.77893488    -0.81000
O143        O  0.47169914  0.21324208  0.67141096    -0.80800
O144        O  0.44322949  0.30016193  0.69361894    -0.79400
Zn145      Zn  0.46086487  0.27860278  0.78306247     1.55700
O146        O  0.46540065  0.16992752  0.71410645    -0.80800
Cd147      Cd  0.48484503  0.26094680  0.70001919     1.59700
Cd148      Cd  0.54451376  0.25983946  0.76779426     1.59600
O149        O  0.53352371  0.27997912  0.67640206    -0.80800
O150        O  0.49243446  0.24877173  0.75339327    -1.91300
Cd151      Cd  0.48080464  0.19571181  0.76297262     1.59900
O152        O  0.57330408  0.27894575  0.72300810    -0.80700
O153        O  0.44149819  0.18942637  0.80501540    -0.79400
C154        C  0.52331096  0.32012036  0.82074742     0.83100
C155        C  0.42178745  0.31383582  0.71784965     0.82800
O156        O  0.43372672  0.24817436  0.82011627    -0.78300
C157        C  0.46536693  0.17997002  0.68037293     0.83600
O158        O  0.48976104  0.31593278  0.81132457    -0.78400
C159        C  0.56607971  0.28428164  0.68916604     0.83700
C160        C  0.56194872  0.17894059  0.78504886     0.84100
O161        O  0.57134813  0.21253028  0.78319580    -0.80900
O162        O  0.81060945  0.74946307  0.92717122    -0.78400
C163        C  0.71994480  0.82136008  0.92596819     0.82700
O164        O  0.80033723  0.80022224  0.05287988    -0.79500
O165        O  0.66922354  0.77817697  0.02557859    -0.81000
O166        O  0.71394327  0.66889999  0.96904433    -0.80800
O167        O  0.80127200  0.69047783  0.94028929    -0.79400
Zn168      Zn  0.78211555  0.77924635  0.96334554     1.55700
O169        O  0.67132280  0.71255373  0.96387528    -0.80800
Cd170      Cd  0.76244719  0.69615045  0.98267805     1.59700
Cd171      Cd  0.75928677  0.76066242  0.04592217     1.59600
O172        O  0.78203962  0.67061300  0.03008339    -0.80800
O173        O  0.75050117  0.74912029  0.99270454    -1.91300
Cd174      Cd  0.69793512  0.76044629  0.97935562     1.59900
O175        O  0.77653155  0.71365100  0.07299604    -0.80700
O176        O  0.69425819  0.80090689  0.93847566    -0.79400
C177        C  0.82211959  0.81321050  0.02863595     0.83100
C178        C  0.81664404  0.71561240  0.92123646     0.82800
O179        O  0.75354398  0.81658110  0.93488377    -0.78300
C180        C  0.68063070  0.67881549  0.96305233     0.83600
O181        O  0.81839020  0.80582543  0.99463991    -0.78400
C182        C  0.78439123  0.68087021  0.06361850     0.83700
C183        C  0.67768875  0.78233438  0.05944975     0.84100
O184        O  0.71058102  0.77724608  0.07088599    -0.80900
O185        O  0.31831905  0.24866693  0.94826587    -0.78400
C186        C  0.21955281  0.31420456  0.93022032     0.82700
O187        O  0.29848940  0.30499052  0.06416402    -0.79500
O188        O  0.16820462  0.27997446  0.03928454    -0.81000
O189        O  0.21282957  0.17052512  0.97878782    -0.80800
O190        O  0.30322317  0.19013021  0.95718107    -0.79400
Zn191      Zn  0.28191920  0.27978331  0.97523448     1.55700
O192        O  0.17044758  0.21461466  0.97678430    -0.80800
Cd193      Cd  0.26067745  0.19722784  0.99593195     1.59700
Cd194      Cd  0.25943689  0.26339340  0.05805573     1.59600
O195        O  0.27512695  0.17204201  0.04532150    -0.80800
O196        O  0.24979652  0.25069257  0.00523526    -1.91300
Cd197      Cd  0.19697609  0.26254276  0.99262536     1.59900
O198        O  0.27581594  0.21725195  0.08662911    -0.80700
O199        O  0.19336570  0.30086052  0.94953799    -0.79400
C200        C  0.31480896  0.32321190  0.03907553     0.83100
C201        C  0.32359139  0.21465527  0.94242192     0.82800
O202        O  0.25318194  0.30747469  0.93759101    -0.78300
C203        C  0.17952685  0.18094325  0.97368821     0.83600
O204        O  0.31009378  0.31631869  0.00510043    -0.78400
C205        C  0.27922948  0.18341845  0.07828932     0.83700
C206        C  0.17746012  0.28351309  0.07300790     0.84100
O207        O  0.21084360  0.27908097  0.08330080    -0.80900
O208        O  0.75278644  0.44512929  0.31572003    -0.78400
C209        C  0.81596094  0.42401356  0.21580466     0.82700
O210        O  0.80924301  0.55830723  0.29450637    -0.79500
O211        O  0.78494422  0.53327290  0.16492165    -0.81000
O212        O  0.67358485  0.47407707  0.21041397    -0.80800
O213        O  0.69399221  0.45329401  0.30000084    -0.79400
Zn214      Zn  0.78353825  0.47008558  0.27769392     1.55700
O215        O  0.71671112  0.47274883  0.16701603    -0.80800
Cd216      Cd  0.70103602  0.49132855  0.25732552     1.59700
Cd217      Cd  0.76726426  0.55297371  0.25557905     1.59600
O218        O  0.67609614  0.54041815  0.27194565    -0.80800
O219        O  0.75440758  0.50033967  0.24592053    -1.91300
Cd220      Cd  0.76550986  0.48742676  0.19327347     1.59900
O221        O  0.72098574  0.58199390  0.27219424    -0.80700
O222        O  0.80293071  0.44366243  0.18974542    -0.79400
C223        C  0.82849629  0.53307827  0.30944918     0.83100
C224        C  0.71859727  0.43927215  0.32086228     0.82800
O225        O  0.80924163  0.43107359  0.24938193    -0.78300
C226        C  0.68314977  0.46930756  0.17695463     0.83600
O227        O  0.82195441  0.49925269  0.30387122    -0.78400
C228        C  0.68707956  0.57338613  0.27618858     0.83700
C229        C  0.78926672  0.56683332  0.17401678     0.84100
O230        O  0.78418205  0.57743107  0.20710367    -0.80900
O231        O  0.45062642  0.93084841  0.49315741    -0.78400
C232        C  0.43137409  0.03123565  0.43185564     0.82700
O233        O  0.56652351  0.95204216  0.44062783    -0.79500
O234        O  0.53837525  0.07964998  0.46832074    -0.81000
O235        O  0.47749405  0.03235977  0.57658031    -0.80800
O236        O  0.45829315  0.94308803  0.55259371    -0.79400
Zn237      Zn  0.47679267  0.96885830  0.46438912     1.55700
O238        O  0.47712525  0.07695734  0.53491687    -0.80800
Cd239      Cd  0.49583312  0.98639426  0.54813490     1.59700
Cd240      Cd  0.56014599  0.98991658  0.48389644     1.59600
O241        O  0.54423213  0.97087048  0.57404354    -0.80800
O242        O  0.50649597  0.99907872  0.49550000    -1.91300
Cd243      Cd  0.49251092  0.05148287  0.48598191     1.59900
O244        O  0.58764259  0.97143300  0.53088089    -0.80700
O245        O  0.44994696  0.05671755  0.44724429    -0.79400
C246        C  0.54124064  0.93736997  0.42102589     0.83100
C247        C  0.44475362  0.92353134  0.52678259     0.82800
O248        O  0.43871400  0.99754440  0.43716542    -0.78300
C249        C  0.47300809  0.06602764  0.56807114     0.83600
O250        O  0.50727230  0.94270004  0.42763027    -0.78400
C251        C  0.57768369  0.96651602  0.56426583     0.83700
C252        C  0.57258175  0.07215330  0.46486294     0.84100
O253        O  0.58479958  0.03960541  0.46955978    -0.80900
O254        O  0.00016489  0.69309876  0.67447873    -0.78400
C255        C  0.07762771  0.78073793  0.68039038     0.82700
O256        O  0.04893123  0.69731026  0.80190344    -0.79500
O257        O  0.02909359  0.82891114  0.77872525    -0.81000
O258        O  0.92259835  0.79171829  0.71660802    -0.80800
O259        O  0.94108759  0.70557059  0.68566069    -0.79400
Zn260      Zn  0.03047535  0.71891481  0.71255095     1.55700
O261        O  0.96826428  0.83225168  0.71282458    -0.80800
Cd262      Cd  0.94753101  0.74213183  0.72929718     1.59700
Cd263      Cd  0.00926775  0.73911249  0.79580247     1.59600
O264        O  0.91913703  0.72262739  0.77433382    -0.80800
O265        O  0.00059325  0.75057936  0.74221055    -1.91300
Cd266      Cd  0.01410860  0.80284432  0.73055064     1.59900
O267        O  0.95957033  0.72293463  0.82044132    -0.80700
O268        O  0.05803674  0.80680307  0.69333272    -0.79400
C269        C  0.06308248  0.67665771  0.77723852     0.83100
C270        C  0.96603570  0.68936864  0.66706667     0.82800
O271        O  0.06986647  0.74727137  0.68671369    -0.78300
C272        C  0.93396354  0.82436877  0.71118540     0.83600
O273        O  0.05649634  0.68138503  0.74318063    -0.78400
C274        C  0.92674290  0.71832133  0.80827000     0.83700
C275        C  0.03149215  0.81970969  0.81251584     0.84100
O276        O  0.02589263  0.78675183  0.82314389    -0.80900
O277        O  0.43988217  0.81828647  0.25314018    -0.78400
C278        C  0.43474198  0.71838318  0.31705800     0.82700
O279        O  0.56232560  0.80979639  0.29264091    -0.79500
O280        O  0.54350309  0.67710888  0.27482310    -0.81000
O281        O  0.46631060  0.71735257  0.17171859    -0.80800
O282        O  0.44457019  0.80511206  0.19354863    -0.79400
Zn283      Zn  0.47254594  0.78397818  0.28082308     1.55700
O284        O  0.47651682  0.67347220  0.21305620    -0.80800
Cd285      Cd  0.48520598  0.76483140  0.19625537     1.59700
Cd286      Cd  0.55493576  0.76774605  0.25419681     1.59600
O287        O  0.52992447  0.78070417  0.16456458    -0.80800
O288        O  0.50153362  0.75457958  0.24801376    -1.91300
Cd289      Cd  0.49383913  0.70127318  0.25977189     1.59900
O290        O  0.57719271  0.78255560  0.20364556    -0.80700
O291        O  0.45393294  0.69412889  0.30052137    -0.79400
C292        C  0.53831972  0.82508627  0.31319693     0.83100
C293        C  0.43084884  0.82378683  0.21980739     0.82800
O294        O  0.43967916  0.75257918  0.31187167    -0.78300
C295        C  0.46662705  0.68357281  0.18095000     0.83600
O296        O  0.50436649  0.81624078  0.31206524    -0.78400
C297        C  0.56418536  0.78525501  0.17106060     0.83700
C298        C  0.57678111  0.68855685  0.27658005     0.84100
O299        O  0.58469905  0.72211306  0.27067497    -0.80900
O300        O  0.20252202  0.74331424  0.57179410    -0.78400
C301        C  0.19193539  0.67427088  0.47548212     0.82700
O302        O  0.32282719  0.68977312  0.55225072    -0.79500
O303        O  0.29230208  0.71744170  0.42266665    -0.81000
O304        O  0.23271182  0.82439118  0.47177829    -0.80800
O305        O  0.21377437  0.80235148  0.56107874    -0.79400
Zn306      Zn  0.23274627  0.71347330  0.53741062     1.55700
O307        O  0.22790103  0.78186796  0.42818324    -0.80800
Cd308      Cd  0.25199890  0.79671453  0.51804305     1.59700
Cd309      Cd  0.31471739  0.73073924  0.51278741     1.59600
O310        O  0.30166416  0.82184245  0.53201815    -0.80800
O311        O  0.26136540  0.74373910  0.50533957    -1.91300
Cd312      Cd  0.24650741  0.73384160  0.45289616     1.59900
O313        O  0.34355788  0.77713088  0.52792513    -0.80700
O314        O  0.20632115  0.69280130  0.44940505    -0.79400
C315        C  0.29834381  0.67344701  0.57131146     0.83100
C316        C  0.19744622  0.77704085  0.57909510     0.82800
O317        O  0.19966119  0.68059582  0.50898718    -0.78300
C318        C  0.22523405  0.81522375  0.43872063     0.83600
O319        O  0.26424832  0.68071567  0.56795033    -0.78400
C320        C  0.33499841  0.81061071  0.53363503     0.83700
C321        C  0.32612812  0.71151082  0.43062594     0.84100
O322        O  0.33792359  0.71435836  0.46352899    -0.80900
O323        O  0.31226771  0.43524380  0.75059357    -0.78400
C324        C  0.31349787  0.53173680  0.82252147     0.82700
O325        O  0.19109954  0.44372314  0.80444991    -0.79500
O326        O  0.20912873  0.57704821  0.77511468    -0.81000
O327        O  0.27966592  0.53195458  0.67216344    -0.80800
O328        O  0.29505159  0.44256378  0.69217960    -0.79400
Zn329      Zn  0.27973472  0.46708255  0.78112675     1.55700
O330        O  0.27968304  0.57511897  0.71538100    -0.80800
Cd331      Cd  0.25783258  0.48591423  0.69817124     1.59700
Cd332      Cd  0.19521616  0.48510063  0.76445636     1.59600
O333        O  0.20865162  0.47218622  0.67197180    -0.80800
O334        O  0.24782862  0.49692523  0.75146779    -1.91300
Cd335      Cd  0.25809500  0.55009087  0.76186798     1.59900
O336        O  0.16756958  0.46831677  0.71739603    -0.80700
O337        O  0.29588418  0.55638076  0.80482327    -0.79400
C338        C  0.21722827  0.42523130  0.81900774     0.83100
C339        C  0.31440934  0.42664969  0.71677113     0.82800
O340        O  0.30996428  0.49774461  0.81529865    -0.78300
C341        C  0.28617706  0.56486125  0.68248824     0.83600
O342        O  0.25084182  0.43198336  0.81173028    -0.78400
C343        C  0.17592164  0.46604377  0.68334486     0.83700
C344        C  0.17631652  0.56632708  0.78200335     0.84100
O345        O  0.16765548  0.53233729  0.78111002    -0.80900
O346        O  0.48978421  0.43919891  0.93600615    -0.78400
C347        C  0.42425520  0.43379725  0.03681350     0.82700
O348        O  0.44512378  0.55943122  0.94625614    -0.79500
O349        O  0.46794242  0.53972824  0.07880808    -0.81000
O350        O  0.57299648  0.46860974  0.03622374    -0.80800
O351        O  0.54964257  0.44653395  0.94793370    -0.79400
Zn352      Zn  0.46139864  0.47033182  0.97119310     1.55700
O353        O  0.53128055  0.47479016  0.08048970    -0.80800
Cd354      Cd  0.54623614  0.48608489  0.98906999     1.59700
Cd355      Cd  0.48545814  0.55276792  0.98700539     1.59600
O356        O  0.57548263  0.53194298  0.97265205    -0.80800
O357        O  0.49391169  0.49991984  0.00018528    -1.91300
Cd358      Cd  0.48347383  0.49101402  0.05368411     1.59900
O359        O  0.53463155  0.57736881  0.97131383    -0.80700
O360        O  0.44252881  0.45135643  0.06111720    -0.79400
C361        C  0.42391837  0.53484161  0.93295023     0.83100
C362        C  0.52350826  0.43215800  0.92939577     0.82800
O363        O  0.42952460  0.43853064  0.00256228    -0.78300
C364        C  0.56406612  0.46755114  0.07016109     0.83600
O365        O  0.42740717  0.50118909  0.94144266    -0.78400
C366        C  0.56769823  0.56571428  0.96802598     0.83700
C367        C  0.46453904  0.57269742  0.06735716     0.84100
O368        O  0.46899564  0.58077837  0.03355459    -0.80900
C369        C  0.37213879  0.55880976  0.84556583    -0.20200
C370        C  0.33823931  0.54172911  0.85308194    -0.06700
C371        C  0.33087805  0.52875003  0.88891286     0.14100
C372        C  0.35868113  0.53028335  0.91560374    -0.20200
C373        C  0.39376862  0.54418340  0.90730038    -0.06700
C374        C  0.40025384  0.55999855  0.87238841     0.14100
C375        C  0.43746546  0.57552808  0.86259774    -0.23600
H376        H  0.37756923  0.56872540  0.81796508     0.15400
H377        H  0.35374688  0.51847716  0.94255991     0.15400
C378        C  0.29402268  0.51217600  0.89872609    -0.23500
H379        H  0.43802725  0.58608383  0.83392118     0.05600
H380        H  0.45891260  0.55389387  0.86519992     0.08900
H381        H  0.44423690  0.59859783  0.88138916     0.08900
H382        H  0.28900929  0.48698731  0.88229791     0.08900
H383        H  0.27173905  0.53235710  0.89312771     0.08900
H384        H  0.29263467  0.50448174  0.92827581     0.05600
C385        C  0.31210895  0.65514730  0.63502613    -0.20200
C386        C  0.30828903  0.64490611  0.59814732    -0.06700
C387        C  0.30421184  0.60757089  0.58908375     0.14100
C388        C  0.29996666  0.58164387  0.61732902    -0.20200
C389        C  0.29934057  0.59223237  0.65465994    -0.06700
C390        C  0.30807116  0.62934957  0.66353384     0.14100
C391        C  0.31206925  0.64275694  0.70261081    -0.23600
H392        H  0.31551052  0.68398875  0.64162635     0.15400
H393        H  0.29486287  0.55329126  0.60988963     0.15400
C394        C  0.30255743  0.59545047  0.54947735    -0.23500
H395        H  0.32175219  0.67167706  0.70371314     0.05600
H396        H  0.33269606  0.62570160  0.71743811     0.08900
H397        H  0.28507616  0.64176607  0.71693765     0.08900
H398        H  0.32859150  0.60317388  0.53538119     0.08900
H399        H  0.27910100  0.60899542  0.53534330     0.08900
H400        H  0.29893023  0.56527420  0.54698524     0.05600
C401        C  0.46293899  0.66602146  0.11524519    -0.20200
C402        C  0.45851034  0.65553790  0.15217709    -0.06700
C403        C  0.45005341  0.61836924  0.16011028     0.14100
C404        C  0.44955190  0.59259617  0.13132203    -0.20200
C405        C  0.45772052  0.60253038  0.09477023    -0.06700
C406        C  0.46300916  0.64033541  0.08654924     0.14100
C407        C  0.47054606  0.65430108  0.04814685    -0.23600
H408        H  0.46875355  0.69454872  0.10875453     0.15400
H409        H  0.44429890  0.56396983  0.13786201     0.15400
C410        C  0.44173396  0.60533251  0.19862144    -0.23500
H411        H  0.47334953  0.68467014  0.04731965     0.05600
H412        H  0.44734400  0.64687362  0.02960734     0.08900
H413        H  0.49683744  0.64266880  0.03768964     0.08900
H414        H  0.41925288  0.62218791  0.21065971     0.08900
H415        H  0.46679342  0.60710870  0.21609026     0.08900
H416        H  0.43258890  0.57621764  0.19895908     0.07200
C417        C  0.41533674  0.69341414  0.37736636    -0.20200
C418        C  0.40549120  0.70752163  0.34293326    -0.06700
C419        C  0.36832162  0.71645632  0.33571369     0.14100
C420        C  0.34243519  0.71442601  0.36425605    -0.20200
C421        C  0.35287877  0.70437016  0.40021310    -0.06700
C422        C  0.38958931  0.69173264  0.40626654     0.14100
C423        C  0.40238604  0.67712615  0.44297106    -0.23600
H424        H  0.44393378  0.68601146  0.38238766     0.15400
H425        H  0.31430190  0.72309414  0.35877658     0.15400
C426        C  0.35615485  0.72896770  0.29801846    -0.23500
H427        H  0.43064909  0.66541342  0.44130851     0.05600
H428        H  0.38358468  0.65495424  0.45233716     0.08900
H429        H  0.40330633  0.69950736  0.46364364     0.08900
H430        H  0.36302963  0.70754435  0.27739444     0.08900
H431        H  0.37025378  0.75494069  0.29050268     0.08900
H432        H  0.32592311  0.73392494  0.29682507     0.05600
C433        C  0.14292092  0.76836619  0.66694748    -0.20200
C434        C  0.11092831  0.78813984  0.65804799    -0.06700
C435        C  0.11038472  0.80985607  0.62579170     0.14100
C436        C  0.14075792  0.80856785  0.60158105    -0.20200
C437        C  0.17120139  0.78580911  0.60895694    -0.06700
C438        C  0.17306544  0.76696934  0.64295737     0.14100
C439        C  0.20659945  0.74489749  0.65395613    -0.23600
H440        H  0.14360510  0.75242530  0.69216226     0.15400
H441        H  0.13954247  0.82320899  0.57563166     0.15400
C442        C  0.07698257  0.83225964  0.61563262    -0.23500
H443        H  0.20418995  0.73415329  0.68246929     0.05600
H444        H  0.23156122  0.76252588  0.65270950     0.08900
H445        H  0.21019562  0.72093958  0.63549421     0.08900
H446        H  0.07173333  0.85315815  0.63723058     0.08900
H447        H  0.05251132  0.81409983  0.61299794     0.08900
H448        H  0.08084920  0.84682981  0.58905839     0.05600
C449        C  0.12434144  0.65636843  0.79995251    -0.20200
C450        C  0.08908046  0.64696905  0.78714669    -0.06700
C451        C  0.08156730  0.61017777  0.77764116     0.14100
C452        C  0.11010202  0.58412706  0.77879527    -0.20200
C453        C  0.14647481  0.59399953  0.78829654    -0.06700
C454        C  0.15327531  0.63048664  0.80044079     0.14100
C455        C  0.19079634  0.64272736  0.81355797    -0.23600
H456        H  0.12988690  0.68467895  0.80728306     0.15400
H457        H  0.10424404  0.55628977  0.77007054     0.15400
C458        C  0.04350790  0.59849095  0.76556219    -0.23500
H459        H  0.19009110  0.67111363  0.82470806     0.05600
H460        H  0.21072608  0.64262260  0.79042027     0.08900
H461        H  0.20062080  0.62425347  0.83582580     0.08900
H462        H  0.03558705  0.61292378  0.73984377     0.08900
H463        H  0.02324588  0.60514003  0.78746861     0.08900
H464        H  0.04208865  0.56850663  0.76016970     0.05600
C465        C  0.53289698  0.89004968  0.32946669    -0.20200
C466        C  0.54852489  0.85582421  0.33750385    -0.06700
C467        C  0.56795995  0.85085090  0.37082867     0.14100
C468        C  0.56875897  0.87964449  0.39677116    -0.20200
C469        C  0.55005682  0.91278137  0.38996014    -0.06700
C470        C  0.53340241  0.91860208  0.35521658     0.14100
C471        C  0.51520509  0.95461446  0.34548330    -0.23600
H472        H  0.51835526  0.89375216  0.30363003     0.15400
H473        H  0.58140444  0.87521995  0.42344460     0.15400
C474        C  0.58563219  0.81456284  0.37990216    -0.23500
H475        H  0.50542194  0.95494389  0.31649445     0.05600
H476        H  0.53529319  0.97736597  0.34896518     0.08900
H477        H  0.49087865  0.95961848  0.36326842     0.08900
H478        H  0.60678040  0.80787442  0.35886457     0.08900
H479        H  0.56437015  0.79261492  0.38021934     0.08900
H480        H  0.59932238  0.81512378  0.40726853     0.05600
C481        C  0.38981111  0.89696036  0.55754332    -0.20200
C482        C  0.42074114  0.89190480  0.53496007    -0.06700
C483        C  0.42569917  0.85802332  0.51665042     0.14100
C484        C  0.39817128  0.83120736  0.51905732    -0.20200
C485        C  0.36536159  0.83751734  0.53862517    -0.06700
C486        C  0.36177827  0.87027262  0.55937377     0.14100
C487        C  0.32869380  0.87736651  0.58340513    -0.23600
H488        H  0.38647104  0.92278959  0.57196553     0.15400
H489        H  0.40144658  0.80593831  0.50363846     0.15400
C490        C  0.45984024  0.84999833  0.49423943    -0.23500
H491        H  0.33194986  0.90298102  0.59967730     0.05600
H492        H  0.32504600  0.85426376  0.60300862     0.08900
H493        H  0.30351214  0.88049780  0.56631344     0.08900
H494        H  0.48482959  0.85415166  0.51146228     0.08900
H495        H  0.46113147  0.86815612  0.46977855     0.08900
H496        H  0.46016579  0.82123615  0.48408255     0.05600
C497        C  0.61692346  0.45908060  0.16115293    -0.20200
C498        C  0.65369633  0.46183728  0.14892901    -0.06700
C499        C  0.66045809  0.46062505  0.11043869     0.14100
C500        C  0.63048905  0.45970548  0.08589042    -0.20200
C501        C  0.59365639  0.46066040  0.09812864    -0.06700
C502        C  0.58693374  0.45875276  0.13657551     0.14100
C503        C  0.54852014  0.45714457  0.15251684    -0.23600
H504        H  0.61127408  0.45886214  0.19041594     0.15400
H505        H  0.63614732  0.46022518  0.05663455     0.15400
C506        C  0.69882954  0.46150400  0.09433798    -0.23500
H507        H  0.54895357  0.45323374  0.18283377     0.05600
H508        H  0.53315548  0.43368539  0.14041496     0.08900
H509        H  0.53366884  0.48324667  0.14711661     0.08900
H510        H  0.71528883  0.43818837  0.10523441     0.08900
H511        H  0.71248015  0.48796751  0.10099666     0.08900
H512        H  0.69849148  0.45901138  0.06386893     0.05600
C513        C  0.67033975  0.63968780  0.27666011    -0.20200
C514        C  0.65957571  0.60317562  0.28327126    -0.06700
C515        C  0.62239532  0.59629288  0.29342804     0.14100
C516        C  0.59689832  0.62534997  0.29348249    -0.20200
C517        C  0.60692889  0.66126027  0.28334465    -0.06700
C518        C  0.64479804  0.66870864  0.27634977     0.14100
C519        C  0.65885789  0.70660279  0.26703974    -0.23600
H520        H  0.69885321  0.64551386  0.26968764     0.15400
H521        H  0.56830770  0.61945969  0.30007235     0.15400
C522        C  0.60879871  0.55856348  0.30390861    -0.23500
H523        H  0.68926309  0.70700123  0.26315028     0.05600
H524        H  0.65238639  0.72589010  0.28979154     0.08900
H525        H  0.64623106  0.71633235  0.24094845     0.08900
H526        H  0.62620513  0.54718217  0.32635049     0.08900
H527        H  0.60933577  0.54006419  0.27966359     0.08900
H528        H  0.57986364  0.55920189  0.31395772     0.05600
C529        C  0.18970821  0.36997905  0.90357840    -0.20200
C530        C  0.21187231  0.33869061  0.89858889    -0.06700
C531        C  0.23040236  0.33370319  0.86470366     0.14100
C532        C  0.22912667  0.36156192  0.83817387    -0.20200
C533        C  0.20977885  0.39432418  0.84440925    -0.06700
C534        C  0.18857446  0.39804149  0.87680560     0.14100
C535        C  0.16679083  0.43241798  0.88425550    -0.23600
H536        H  0.17529839  0.37359420  0.92937775     0.15400
H537        H  0.24469046  0.35844646  0.81298440     0.15400
C538        C  0.25185454  0.29916071  0.85630804    -0.23500
H539        H  0.15255211  0.43117896  0.91126973     0.05600
H540        H  0.14550610  0.43610427  0.86256016     0.08900
H541        H  0.18549902  0.45656403  0.88442421     0.08900
H542        H  0.23376134  0.27482692  0.85992466     0.08900
H543        H  0.27619221  0.29675899  0.87468166     0.08900
H544        H  0.26221850  0.29896775  0.82755230     0.05600
C545        C  0.37610633  0.34484261  0.05992315    -0.20200
C546        C  0.34009042  0.35334661  0.04854804    -0.06700
C547        C  0.33095724  0.38988352  0.03936516     0.14100
C548        C  0.35874584  0.41662299  0.03903034    -0.20200
C549        C  0.39536291  0.40755766  0.04752777    -0.06700
C550        C  0.40404860  0.37164016  0.05926458     0.14100
C551        C  0.44314791  0.36110212  0.06855565    -0.23600
H552        H  0.38297407  0.31662750  0.06663038     0.15400
H553        H  0.35231250  0.44429249  0.02997302     0.15400
C554        C  0.29214326  0.40031112  0.02861414    -0.23500
H555        H  0.44526508  0.33180597  0.07679609     0.05600
H556        H  0.45324807  0.37823053  0.09174474     0.08900
H557        H  0.46117882  0.36547923  0.04426224     0.08900
H558        H  0.27296070  0.39340656  0.05139044     0.08900
H559        H  0.28367783  0.38521907  0.00345044     0.08900
H560        H  0.28966273  0.43016735  0.02286588     0.05600
C561        C  0.58789940  0.62914168  0.95202372    -0.20200
C562        C  0.59786452  0.59282013  0.96068729    -0.06700
C563        C  0.63593035  0.58455729  0.96537513     0.14100
C564        C  0.66205411  0.61297639  0.96344350    -0.20200
C565        C  0.65177059  0.64981056  0.95776715    -0.06700
C566        C  0.61397703  0.65768227  0.95075494     0.14100
C567        C  0.60017805  0.69594101  0.94264179    -0.23600
H568        H  0.55906620  0.63571453  0.94759092     0.15400
H569        H  0.69081199  0.60635576  0.96825818     0.15400
C570        C  0.64976157  0.54637892  0.97393929    -0.23500
H571        H  0.57029155  0.69621755  0.93578704     0.05600
H572        H  0.61520379  0.70749239  0.91868408     0.08900
H573        H  0.60388255  0.71379555  0.96711949     0.08900
H574        H  0.64184650  0.52726830  0.95147916     0.08900
H575        H  0.63826006  0.53681241  0.00057511     0.08900
H576        H  0.68030481  0.54539427  0.97643613     0.05600
C577        C  0.61139929  0.78036984  0.07716138    -0.20200
C578        C  0.64772198  0.79037028  0.08649535    -0.06700
C579        C  0.65451775  0.80462584  0.12219097     0.14100
C580        C  0.62586104  0.80502502  0.14823187    -0.20200
C581        C  0.59042416  0.79155337  0.13996829    -0.06700
C582        C  0.58274687  0.78060766  0.10320099     0.14100
C583        C  0.54516097  0.76730388  0.09114894    -0.23600
H584        H  0.60567256  0.77019476  0.04970813     0.15400
H585        H  0.63170731  0.81463121  0.17586355     0.15400
C586        C  0.69173799  0.81943808  0.13342906    -0.23500
H587        H  0.54458492  0.75986036  0.06150562     0.05600
H588        H  0.52439374  0.78932264  0.09532649     0.08900
H589        H  0.53729763  0.74242035  0.10695011     0.08900
H590        H  0.70094925  0.84051701  0.11336076     0.08900
H591        H  0.71226665  0.79690511  0.13500289     0.08900
H592        H  0.69083092  0.83257557  0.16100197     0.05600
C593        C  0.79996390  0.61643221  0.08166014    -0.20200
C594        C  0.79414882  0.65311354  0.09252752    -0.06700
C595        C  0.79470332  0.66129707  0.13076534     0.14100
C596        C  0.79639760  0.63246358  0.15634838    -0.20200
C597        C  0.79722669  0.59540215  0.14539131    -0.06700
C598        C  0.80154825  0.58754556  0.10736843     0.14100
C599        C  0.80713372  0.54904250  0.09314009    -0.23600
H600        H  0.80143535  0.60987477  0.05263082     0.15400
H601        H  0.79487560  0.63912916  0.18534342     0.15400
C602        C  0.79239909  0.69997675  0.14554693    -0.23500
H603        H  0.81286740  0.54872256  0.06311721     0.05600
H604        H  0.78191725  0.53238075  0.09763180     0.08900
H605        H  0.83109884  0.53619964  0.10723656     0.08900
H606        H  0.76505679  0.71212490  0.13908829     0.08900
H607        H  0.81481781  0.71696791  0.13358259     0.08900
H608        H  0.79560252  0.70086196  0.17594315     0.05600
C609        C  0.83251634  0.71680890  0.85551296    -0.20200
C610        C  0.84246755  0.70656552  0.89125058    -0.06700
C611        C  0.87898066  0.69531589  0.89847433     0.14100
C612        C  0.90541179  0.69705768  0.87018531    -0.20200
C613        C  0.89626282  0.71000579  0.83476537    -0.06700
C614        C  0.85862729  0.71852859  0.82706263     0.14100
C615        C  0.84557106  0.73158984  0.78980842    -0.23600
H616        H  0.80431908  0.72554905  0.85035973     0.15400
H617        H  0.93381076  0.68983203  0.87633610     0.15400
C618        C  0.89047138  0.68358209  0.93654720    -0.23500
H619        H  0.81542190  0.73715466  0.78942579     0.05600
H620        H  0.85101427  0.71018244  0.76876073     0.08900
H621        H  0.85973061  0.75755615  0.78230498     0.08900
H622        H  0.87399799  0.65936141  0.94513374     0.08900
H623        H  0.88580553  0.70634761  0.95632253     0.08900
H624        H  0.92013618  0.67595300  0.93766101     0.05600
C625        C  0.51811201  0.38522485  0.83738229    -0.20200
C626        C  0.53195981  0.35039096  0.84615782    -0.06700
C627        C  0.54871969  0.34441564  0.88079137     0.14100
C628        C  0.54847449  0.37284116  0.90700092    -0.20200
C629        C  0.53157828  0.40660563  0.89913937    -0.06700
C630        C  0.51781723  0.41348982  0.86342138     0.14100
C631        C  0.50231413  0.45047963  0.85286558    -0.23600
H632        H  0.50591399  0.38980246  0.81048732     0.15400
H633        H  0.55918065  0.36788135  0.93443458     0.15400
C634        C  0.56442640  0.30750211  0.89100644    -0.23500
H635        H  0.49432103  0.45145290  0.82335294     0.05600
H636        H  0.52342689  0.47204921  0.85770010     0.08900
H637        H  0.47735474  0.45674023  0.86934250     0.08900
H638        H  0.58731739  0.30038969  0.87203263     0.08900
H639        H  0.54259457  0.28618851  0.88912338     0.08900
H640        H  0.57550930  0.30735670  0.91952549     0.05600
C641        C  0.46209390  0.11414878  0.66155435    -0.20200
C642        C  0.46074721  0.15131601  0.65098712    -0.06700
C643        C  0.45855493  0.15953257  0.61279876     0.14100
C644        C  0.46040294  0.13085367  0.58689620    -0.20200
C645        C  0.46488427  0.09390581  0.59746036    -0.06700
C646        C  0.46444535  0.08551169  0.63568193     0.14100
C647        C  0.46755556  0.04677100  0.65012527    -0.23600
H648        H  0.46312435  0.10728296  0.69053348     0.15400
H649        H  0.45977800  0.13773528  0.55790288     0.15400
C650        C  0.45483545  0.19826892  0.59851510    -0.23500
H651        H  0.46564754  0.04565937  0.68061201     0.05600
H652        H  0.49466381  0.03483661  0.64243895     0.08900
H653        H  0.44474704  0.02973268  0.63893639     0.08900
H654        H  0.48020518  0.21418964  0.60468965     0.08900
H655        H  0.43042955  0.21168713  0.61115034     0.08900
H656        H  0.45097277  0.19898354  0.56818909     0.05600
C657        C  0.34450757  0.18734940  0.88326595    -0.20200
C658        C  0.35353575  0.20471613  0.91661318    -0.06700
C659        C  0.38955264  0.21879592  0.92160817     0.14100
C660        C  0.41429374  0.21866420  0.89196513    -0.20200
C661        C  0.40409320  0.20457983  0.85749410    -0.06700
C662        C  0.36944841  0.18723250  0.85349087     0.14100
C663        C  0.35779055  0.17107871  0.81717207    -0.23600
H664        H  0.31691159  0.17649297  0.87951961     0.15400
H665        H  0.44117404  0.23138083  0.89513639     0.15400
C666        C  0.40174178  0.23465550  0.95800274    -0.23500
H667        H  0.32957054  0.15926022  0.81853930     0.05600
H668        H  0.37715293  0.14882806  0.80925328     0.08900
H669        H  0.35794488  0.19268376  0.79560806     0.08900
H670        H  0.39818865  0.21379146  0.98000078     0.08900
H671        H  0.38530140  0.25939619  0.96486391     0.08900
H672        H  0.43126363  0.24286505  0.95750777     0.05600
C673        C  0.37449139  0.40325222  0.69410245    -0.20200
C674        C  0.33888374  0.39591151  0.70720792    -0.06700
C675        C  0.32941671  0.35988486  0.71796525     0.14100
C676        C  0.35654339  0.33249379  0.71789982    -0.20200
C677        C  0.39289660  0.34035356  0.70745879    -0.06700
C678        C  0.40180685  0.37577617  0.69426475     0.14100
C679        C  0.44067429  0.38532590  0.68317782    -0.23600
H680        H  0.38163377  0.43109719  0.68630479     0.15400
H681        H  0.34991000  0.30529957  0.72812399     0.15400
C682        C  0.29103047  0.35076483  0.73107619    -0.23500
H683        H  0.44302978  0.41442480  0.67433403     0.05600
H684        H  0.44937989  0.36765061  0.65987329     0.08900
H685        H  0.45969404  0.38100893  0.70678403     0.08900
H686        H  0.27074954  0.35731739  0.70909621     0.08900
H687        H  0.28435187  0.36697158  0.75604341     0.08900
H688        H  0.28820109  0.32121434  0.73809420     0.05600
C689        C  0.12274132  0.44442646  0.59478911    -0.20200
C690        C  0.08814581  0.45916857  0.60364004    -0.06700
C691        C  0.08121195  0.47089417  0.63996105     0.14100
C692        C  0.10986934  0.47024919  0.66589366    -0.20200
C693        C  0.14575253  0.45902010  0.65629179    -0.06700
C694        C  0.15181999  0.44438202  0.62056936     0.14100
C695        C  0.18869088  0.42904033  0.60909618    -0.23600
H696        H  0.12777059  0.43528283  0.56685093     0.15400
H697        H  0.10459227  0.48078540  0.69327719     0.15400
C698        C  0.04370666  0.48487555  0.65122199    -0.23500
H699        H  0.18734360  0.41618048  0.58140610     0.05600
H700        H  0.19767226  0.40766774  0.62898247     0.08900
H701        H  0.20958737  0.45123759  0.60772183     0.08900
H702        H  0.02259568  0.46345837  0.64575808     0.08900
H703        H  0.03662071  0.51006279  0.63556421     0.08900
H704        H  0.04271221  0.49178479  0.68098065     0.05600
C705        C  0.88177370  0.55964089  0.39481244    -0.20200
C706        C  0.91556939  0.54172078  0.38824471    -0.06700
C707        C  0.92208240  0.52618429  0.35297402     0.14100
C708        C  0.89374734  0.52657679  0.32666855    -0.20200
C709        C  0.85927894  0.54211311  0.33434418    -0.06700
C710        C  0.85354027  0.56001376  0.36824657     0.14100
C711        C  0.81690551  0.57729944  0.37734875    -0.23600
H712        H  0.87674723  0.57190144  0.42151538     0.15400
H713        H  0.89780353  0.51290558  0.30046771     0.15400
C714        C  0.95763247  0.50685831  0.34329675    -0.23500
H715        H  0.81684666  0.58944079  0.40538756     0.05600
H716        H  0.79474154  0.55628219  0.37607245     0.08900
H717        H  0.81075610  0.59951472  0.35734005     0.08900
H718        H  0.96239504  0.48349629  0.36236372     0.08900
H719        H  0.98103569  0.52645739  0.34486486     0.08900
H720        H  0.95709618  0.49561857  0.31488032     0.05600
C721        C  0.14224555  0.58346723  0.48223925    -0.20200
C722        C  0.10950381  0.59107443  0.46327508    -0.06700
C723        C  0.10570680  0.62467961  0.44421670     0.14100
C724        C  0.13430019  0.65080193  0.44630188    -0.20200
C725        C  0.16591446  0.64409687  0.46767185    -0.06700
C726        C  0.17049086  0.60945315  0.48472829     0.14100
C727        C  0.20503619  0.59968019  0.50579906    -0.23600
H728        H  0.14499031  0.55750353  0.49668562     0.15400
H729        H  0.13094171  0.67736931  0.43319683     0.15400
C730        C  0.07068591  0.63388513  0.42387090    -0.23500
H731        H  0.20483495  0.57059981  0.51502547     0.05600
H732        H  0.20765848  0.61698030  0.53077451     0.08900
H733        H  0.22949857  0.60364217  0.48788089     0.08900
H734        H  0.04694834  0.63336843  0.44316619     0.08900
H735        H  0.06599389  0.61353159  0.40162213     0.08900
H736        H  0.07200105  0.66159937  0.41117359     0.05600
C737        C  0.93597995  0.60597497  0.61267586    -0.20200
C738        C  0.95679007  0.61128933  0.58056487    -0.06700
C739        C  0.97431849  0.64537176  0.57447702     0.14100
C740        C  0.97391757  0.67194013  0.60227979    -0.20200
C741        C  0.95631484  0.66529686  0.63592240    -0.06700
C742        C  0.93559244  0.63276034  0.64063914     0.14100
C743        C  0.91549580  0.62512805  0.67606773    -0.23600
H744        H  0.92248593  0.57979591  0.61711489     0.15400
H745        H  0.98926697  0.69721762  0.59860663     0.15400
C746        C  0.99443832  0.65335099  0.53903658    -0.23500
H747        H  0.90136062  0.59807866  0.67543783     0.05600
H748        H  0.89430332  0.64663565  0.68075038     0.08900
H749        H  0.93530199  0.62506229  0.69941923     0.08900
H750        H  0.97525633  0.64990679  0.51542508     0.08900
H751        H  0.01822313  0.63447789  0.53568109     0.08900
H752        H  0.00525780  0.68187202  0.53835800     0.05600
C753        C  0.37431477  0.05454537  0.34755619    -0.20200
C754        C  0.34020619  0.03848179  0.35702839    -0.06700
C755        C  0.33547903  0.02487458  0.39342628     0.14100
C756        C  0.36530886  0.02573404  0.41804984    -0.20200
C757        C  0.39972304  0.03968922  0.40772351    -0.06700
C758        C  0.40413120  0.05521950  0.37247020     0.14100
C759        C  0.44081641  0.07045531  0.36044614    -0.23600
H760        H  0.37821961  0.06519927  0.31998360     0.15400
H761        H  0.36235280  0.01366143  0.44517455     0.15400
C762        C  0.30012580  0.00711988  0.40628793    -0.23500
H763        H  0.43973316  0.08107942  0.33180799     0.05600
H764        H  0.46217992  0.04862093  0.36170332     0.08900
H765        H  0.44895726  0.09339262  0.37886191     0.08900
H766        H  0.29357885  0.98295719  0.38882281     0.08900
H767        H  0.27719202  0.02729639  0.40519581     0.08900
H768        H  0.30215654  0.99727996  0.43516120     0.05600
C769        C  0.29994809  0.09583561  0.13261759    -0.20200
C770        C  0.28176504  0.10380549  0.16567544    -0.06700
C771        C  0.26710317  0.13919872  0.17142058     0.14100
C772        C  0.26918615  0.16523339  0.14313025    -0.20200
C773        C  0.28454531  0.15651630  0.10866004    -0.06700
C774        C  0.30117463  0.12158363  0.10375596     0.14100
C775        C  0.31996781  0.11098369  0.06834112    -0.23600
H776        H  0.31125480  0.06857214  0.12855009     0.15400
H777        H  0.25668920  0.19194665  0.14737366     0.15400
C778        C  0.24875953  0.14941944  0.20723562    -0.23500
H779        H  0.33377975  0.08384423  0.07059241     0.05600
H780        H  0.34131309  0.13167707  0.06128869     0.08900
H781        H  0.29947701  0.10895059  0.04572743     0.08900
H782        H  0.26835121  0.14513878  0.23036722     0.08900
H783        H  0.22382889  0.13231375  0.21167649     0.08900
H784        H  0.23997420  0.17864033  0.20752976     0.05600
C785        C  0.21145190  0.83319104  0.37381024    -0.20200
C786        C  0.21565307  0.84407068  0.41077774    -0.06700
C787        C  0.21376429  0.88216935  0.41901449     0.14100
C788        C  0.21153669  0.90774264  0.39010479    -0.20200
C789        C  0.21136239  0.89690719  0.35289907    -0.06700
C790        C  0.20942672  0.85878076  0.34488649     0.14100
C791        C  0.20600735  0.84424467  0.30613933    -0.23600
H792        H  0.21148712  0.80421319  0.36706672     0.15400
H793        H  0.21176455  0.93672527  0.39684128     0.15400
C794        C  0.21488894  0.89674913  0.45788069    -0.23500
H795        H  0.20237555  0.81396573  0.30562172     0.05600
H796        H  0.23139201  0.85046088  0.29027922     0.08900
H797        H  0.18154336  0.85659081  0.29246889     0.08900
H798        H  0.24213807  0.89097184  0.47059911     0.08900
H799        H  0.19248480  0.88406079  0.47436772     0.08900
H800        H  0.21084335  0.92696896  0.45882894     0.05600
C801        C  0.34116582  0.87369191  0.20213774    -0.20200
C802        C  0.35007094  0.90920512  0.21475036    -0.06700
C803        C  0.38744807  0.91713492  0.22392384     0.14100
C804        C  0.41371340  0.88889764  0.22266541    -0.20200
C805        C  0.40403758  0.85317639  0.21242473    -0.06700
C806        C  0.36766594  0.84555795  0.20109604     0.14100
C807        C  0.35634294  0.80729412  0.19015153    -0.23600
H808        H  0.31287757  0.86735506  0.19467622     0.15400
H809        H  0.44186065  0.89428132  0.23143910     0.15400
C810        C  0.40000656  0.95440732  0.23711662    -0.23500
H811        H  0.32665092  0.80590168  0.18262672     0.05600
H812        H  0.36120462  0.78808156  0.21340081     0.08900
H813        H  0.37273966  0.79826200  0.16601362     0.08900
H814        H  0.38528331  0.96192561  0.26280986     0.08900
H815        H  0.39482139  0.97528870  0.21546188     0.08900
H816        H  0.43003998  0.95494390  0.24332021     0.05600
C817        C  0.91825393  0.89094273  0.71271416    -0.20200
C818        C  0.90657719  0.85469390  0.70599607    -0.06700
C819        C  0.86868161  0.84846755  0.69822891     0.14100
C820        C  0.84367498  0.87788124  0.70017453    -0.20200
C821        C  0.85486608  0.91350648  0.71021104    -0.06700
C822        C  0.89315336  0.92028494  0.71519777     0.14100
C823        C  0.90813146  0.95776000  0.72473833    -0.23600
H824        H  0.94718771  0.89623042  0.71813588     0.15400
H825        H  0.81467108  0.87250734  0.69519490     0.15400
C826        C  0.85379910  0.81105286  0.68829175    -0.23500
H827        H  0.93866266  0.95763082  0.72755481     0.05600
H828        H  0.89659209  0.96714011  0.75141879     0.08900
H829        H  0.90106871  0.97759727  0.70262126     0.08900
H830        H  0.85559448  0.79230261  0.71229486     0.08900
H831        H  0.86951273  0.79960936  0.66472510     0.08900
H832        H  0.82427992  0.81224540  0.68007434     0.05600
C833        C  0.58254516  0.11405462  0.78088879    -0.20200
C834        C  0.59081950  0.15040165  0.79121681    -0.06700
C835        C  0.62731149  0.15872544  0.80320707     0.14100
C836        C  0.65468399  0.13144468  0.80137006    -0.20200
C837        C  0.64674107  0.09651181  0.78754781    -0.06700
C838        C  0.61009309  0.08718382  0.77858669     0.14100
C839        C  0.60016310  0.04895869  0.76607907    -0.23600
H840        H  0.55472011  0.10692313  0.77246390     0.15400
H841        H  0.68296873  0.13804055  0.80871475     0.15400
C842        C  0.63820594  0.19614484  0.81732441    -0.23500
H843        H  0.57005222  0.04605088  0.76106582     0.05600
H844        H  0.60824573  0.02882034  0.78757993     0.08900
H845        H  0.61470766  0.04230217  0.74007056     0.08900
H846        H  0.61944259  0.20453319  0.83994566     0.08900
H847        H  0.63730440  0.21660934  0.79472137     0.08900
H848        H  0.66680630  0.19626939  0.82838971     0.05600
C849        C  0.62587692  0.94883336  0.65664882    -0.20200
C850        C  0.66217492  0.95809721  0.64753547    -0.06700
C851        C  0.67149670  0.96432198  0.61042573     0.14100
C852        C  0.64370042  0.96383797  0.58349541    -0.20200
C853        C  0.60637589  0.95832919  0.59283370    -0.06700
C854        C  0.59771600  0.94891422  0.62992229     0.14100
C855        C  0.55902158  0.93993012  0.64227233    -0.23600
H856        H  0.61905566  0.94410392  0.68530913     0.15400
H857        H  0.65107817  0.97018554  0.55532179     0.15400
C858        C  0.71068645  0.97284626  0.59946344    -0.23500
H859        H  0.55837655  0.93043379  0.67132000     0.05600
H860        H  0.54747694  0.91758687  0.62495113     0.08900
H861        H  0.54123959  0.96468082  0.64061704     0.08900
H862        H  0.72902968  0.94995693  0.60804239     0.08900
H863        H  0.72002086  0.99859329  0.61290895     0.08900
H864        H  0.71343843  0.97644208  0.56923612     0.05600
C865        C  0.70106436  0.87488339  0.83859164    -0.20200
C866        C  0.71351275  0.91010845  0.84880425    -0.06700
C867        C  0.72293078  0.91653943  0.88630424     0.14100
C868        C  0.72198916  0.88726471  0.91140036    -0.20200
C869        C  0.71173185  0.85186234  0.90051045    -0.06700
C870        C  0.70012709  0.84571677  0.86398725     0.14100
C871        C  0.68891021  0.80796716  0.85130946    -0.23600
H872        H  0.69346271  0.86969421  0.81019215     0.15400
H873        H  0.73102571  0.89160364  0.93955244     0.15400
C874        C  0.73617934  0.95334934  0.90012771    -0.23500
H875        H  0.68116924  0.80774359  0.82171922     0.05600
H876        H  0.66475810  0.79843452  0.86745644     0.08900
H877        H  0.71215263  0.78847776  0.85527431     0.08900
H878        H  0.71422214  0.97427120  0.89632990     0.08900
H879        H  0.76154248  0.96168707  0.88519204     0.08900
H880        H  0.74305091  0.95267075  0.92992829     0.05600
C881        C  0.66000300  0.12933327  0.44955084    -0.20200
C882        C  0.64699612  0.16408741  0.45967902    -0.06700
C883        C  0.60922295  0.16925842  0.46668523     0.14100
C884        C  0.58541856  0.13905547  0.46528772    -0.20200
C885        C  0.59858124  0.10327418  0.45832725    -0.06700
C886        C  0.63640484  0.09866001  0.44898453     0.14100
C887        C  0.65258056  0.06179385  0.43921002    -0.23600
H888        H  0.68928270  0.12576251  0.44439720     0.15400
H889        H  0.55660052  0.14336565  0.47199165     0.15400
C890        C  0.59426880  0.20651213  0.47694680    -0.23500
H891        H  0.68178909  0.06416963  0.43025466     0.05600
H892        H  0.63669996  0.04935685  0.41622493     0.08900
H893        H  0.65217141  0.04335260  0.46350790     0.08900
H894        H  0.60038243  0.22643575  0.45464799     0.08900
H895        H  0.60722501  0.21614822  0.50291327     0.08900
H896        H  0.56391346  0.20591031  0.48113003     0.05600
C897        C  0.83117880  0.39439563  0.53244836    -0.20200
C898        C  0.84111336  0.35810803  0.54114474    -0.06700
C899        C  0.87829649  0.35060530  0.55075617     0.14100
C900        C  0.90459782  0.37884281  0.54864992    -0.20200
C901        C  0.89525933  0.41439755  0.53664023    -0.06700
C902        C  0.85749641  0.42249821  0.52969903     0.14100
C903        C  0.84428355  0.45996643  0.51770469    -0.23600
H904        H  0.80274599  0.40055548  0.52548912     0.15400
H905        H  0.93312333  0.37251956  0.55502152     0.15400
C906        C  0.89094992  0.31304712  0.56294603    -0.23500
H907        H  0.81388210  0.46083435  0.51376931     0.05600
H908        H  0.85702565  0.46749412  0.49098034     0.08900
H909        H  0.85129185  0.48066907  0.53901592     0.08900
H910        H  0.88941969  0.29336116  0.53970411     0.08900
H911        H  0.87359650  0.30332797  0.58614395     0.08900
H912        H  0.92007063  0.31333024  0.57253875     0.05600
C913        C  0.68969662  0.35590677  0.37623999    -0.20200
C914        C  0.70631928  0.36370030  0.41042578    -0.06700
C915        C  0.72218363  0.39899994  0.41596574     0.14100
C916        C  0.72301672  0.42409695  0.38669781    -0.20200
C917        C  0.70848291  0.41533277  0.35209084    -0.06700
C918        C  0.69053791  0.38132231  0.34704018     0.14100
C919        C  0.67441987  0.37092663  0.31026427    -0.23600
H920        H  0.67735236  0.32911078  0.37180245     0.15400
H921        H  0.73685916  0.45031884  0.39027257     0.15400
C922        C  0.74066635  0.40991448  0.45160131    -0.23500
H923        H  0.66207592  0.34301686  0.31080147     0.05600
H924        H  0.69632325  0.37127088  0.28892585     0.08900
H925        H  0.65242666  0.39072689  0.30258369     0.08900
H926        H  0.76362489  0.39072109  0.45794867     0.08900
H927        H  0.72022898  0.40977646  0.47431805     0.08900
H928        H  0.75253660  0.43800778  0.45022664     0.05600
C929        C  0.65975185  0.28401961  0.64195439    -0.20200
C930        C  0.65037668  0.29747230  0.60716101    -0.06700
C931        C  0.61473688  0.31169327  0.60096692     0.14100
C932        C  0.58828485  0.30939650  0.62917482    -0.20200
C933        C  0.59675062  0.29319845  0.66339335    -0.06700
C934        C  0.63368820  0.28177238  0.67027391     0.14100
C935        C  0.64583461  0.26492822  0.70629826    -0.23600
H936        H  0.68737339  0.27328821  0.64633261     0.15400
H937        H  0.56036607  0.31878318  0.62384355     0.15400
C938        C  0.60406674  0.32720684  0.56403674    -0.23500
H939        H  0.67548480  0.25716028  0.70600790     0.05600
H940        H  0.62978397  0.23957326  0.71189120     0.08900
H941        H  0.64205684  0.28496799  0.72899710     0.08900
H942        H  0.60732129  0.30589735  0.54243367     0.08900
H943        H  0.62202631  0.35099461  0.55742228     0.08900
H944        H  0.57494210  0.33673318  0.56368150     0.05600
C945        C  0.80812491  0.16342374  0.62646403    -0.20200
C946        C  0.78939946  0.15646821  0.59328278    -0.06700
C947        C  0.77530838  0.12094139  0.58644378     0.14100
C948        C  0.77693220  0.09438354  0.61426027    -0.20200
C949        C  0.79241287  0.10228339  0.64876158    -0.06700
C950        C  0.80973960  0.13657331  0.65445326     0.14100
C951        C  0.82764727  0.14566010  0.69071461    -0.23600
H952        H  0.81915715  0.19059328  0.63148534     0.15400
H953        H  0.76429828  0.06779548  0.60973469     0.15400
C954        C  0.75787616  0.11108516  0.55000012    -0.23500
H955        H  0.83924607  0.17388129  0.69081244     0.05600
H956        H  0.85051893  0.12610584  0.69617376     0.08900
H957        H  0.80702078  0.14369294  0.71319679     0.08900
H958        H  0.77774819  0.11648329  0.52740146     0.08900
H959        H  0.73246629  0.12743092  0.54536623     0.08900
H960        H  0.75004775  0.08162489  0.54881786     0.05600
C961        C  0.10534558  0.07900500  0.27597139    -0.20200
C962        C  0.13694308  0.08339336  0.29777708    -0.06700
C963        C  0.13922898  0.11367662  0.32207319     0.14100
C964        C  0.11159432  0.14093567  0.32078881    -0.20200
C965        C  0.08227949  0.13840339  0.29559189    -0.06700
C966        C  0.07805509  0.10601551  0.27442366     0.14100
C967        C  0.04525838  0.09997254  0.24937041    -0.23600
H968        H  0.10311693  0.05515305  0.25816390     0.15400
H969        H  0.11436310  0.16550206  0.33746266     0.15400
C970        C  0.17176182  0.11855020  0.34740785    -0.23500
H971        H  0.04505728  0.07180288  0.23764199     0.05600
H972        H  0.04586351  0.11931942  0.22582203     0.08900
H973        H  0.01927731  0.10370656  0.26507790     0.08900
H974        H  0.19762077  0.12011134  0.33113578     0.08900
H975        H  0.17337285  0.09500047  0.36674525     0.08900
H976        H  0.16940780  0.14407829  0.36396435     0.05600
C977        C  0.83117736  0.35906372  0.22619055    -0.20200
C978        C  0.83981965  0.39202463  0.20830048    -0.06700
C979        C  0.87386339  0.39534747  0.18980329     0.14100
C980        C  0.89945924  0.36634084  0.19170250    -0.20200
C981        C  0.89176655  0.33410449  0.21161739    -0.06700
C982        C  0.85653039  0.33006447  0.22819273     0.14100
C983        C  0.84618577  0.29665441  0.25050170    -0.23600
H984        H  0.80498493  0.35681525  0.24048407     0.15400
H985        H  0.92628888  0.36950301  0.17889421     0.15400
C986        C  0.88419865  0.43028090  0.17020181    -0.23500
H987        H  0.81821875  0.29920019  0.26273738     0.05600
H988        H  0.86609964  0.29294070  0.27345443     0.08900
H989        H  0.84604446  0.27191385  0.23268565     0.08900
H990        H  0.88393630  0.45361685  0.18986361     0.08900
H991        H  0.86419715  0.43572792  0.14768422     0.08900
H992        H  0.91219724  0.42855672  0.15791611     0.05600
C993        C  0.08520292  0.29871208  0.12295711    -0.20200
C994        C  0.09487680  0.28752936  0.15859163    -0.06700
C995        C  0.13212752  0.28000754  0.16681990     0.14100
C996        C  0.15855182  0.28172304  0.13875724    -0.20200
C997        C  0.14875769  0.28969048  0.10203613    -0.06700
C998        C  0.11153114  0.29963817  0.09440319     0.14100
C999        C  0.09885303  0.31053078  0.05641558    -0.23600
H1000       H  0.05645675  0.30445211  0.11691105     0.15400
H1001       H  0.18681795  0.27461314  0.14543685     0.15400
C1002       C  0.14396671  0.26931520  0.20518638    -0.23500
H1003       H  0.06963907  0.31979174  0.05637182     0.05600
H1004       H  0.10072408  0.28676021  0.03741875     0.08900
H1005       H  0.11602095  0.33355335  0.04605247     0.08900
H1006       H  0.13067940  0.24311626  0.21336421     0.08900
H1007       H  0.13592731  0.29119382  0.22488255     0.08900
H1008       H  0.17431341  0.26544251  0.20715326     0.05600
C1009       C  0.03893264  0.33477266  0.38532293    -0.20200
C1010       C  0.03775130  0.34461102  0.34786855    -0.06700
C1011       C  0.04156359  0.38237534  0.33871258     0.14100
C1012       C  0.04270176  0.40880347  0.36694876    -0.20200
C1013       C  0.03996961  0.39915137  0.40436704    -0.06700
C1014       C  0.03990425  0.36119674  0.41356099     0.14100
C1015       C  0.04008283  0.34770921  0.45284276    -0.23600
H1016       H  0.03723259  0.30604208  0.39286673     0.15400
H1017       H  0.04394571  0.43756044  0.35939877     0.15400
C1018       C  0.04388370  0.39568517  0.29945266    -0.23500
H1019       H  0.04268259  0.31736269  0.45445726     0.05600
H1020       H  0.01383975  0.35513785  0.46666734     0.08900
H1021       H  0.06390293  0.35969189  0.46788792     0.08900
H1022       H  0.01729163  0.39094959  0.28504520     0.08900
H1023       H  0.06662146  0.38128339  0.28494344     0.08900
H1024       H  0.04962489  0.42560461  0.29791024     0.05600
C1025       C  0.87159625  0.20456660  0.41303579    -0.20200
C1026       C  0.83768210  0.22065804  0.40307400    -0.06700
C1027       C  0.83207838  0.23125734  0.36587428     0.14100
C1028       C  0.86082914  0.22691628  0.34056995    -0.20200
C1029       C  0.89552246  0.21325920  0.35107433    -0.06700
C1030       C  0.90062855  0.20087768  0.38764309     0.14100
C1031       C  0.93626366  0.18351310  0.40015213    -0.23600
H1032       H  0.87585424  0.19574734  0.44120635     0.15400
H1033       H  0.85666843  0.23623699  0.31256314     0.15400
C1034       C  0.79688696  0.24910225  0.35248231    -0.23500
H1035       H  0.93423512  0.17292213  0.42874948     0.05600
H1036       H  0.95891296  0.20397497  0.39969305     0.08900
H1037       H  0.94323314  0.16006870  0.38190612     0.08900
H1038       H  0.79158795  0.27472048  0.36818283     0.08900
H1039       H  0.77338604  0.22982336  0.35561282     0.08900
H1040       H  0.79835091  0.25668440  0.32290548     0.05600
C1041       C  0.88770014  0.82924906  0.02398318    -0.20200
C1042       C  0.85303735  0.83742579  0.03895049    -0.06700
C1043       C  0.84773618  0.87103137  0.05765221     0.14100
C1044       C  0.87663286  0.89687120  0.05842109    -0.20200
C1045       C  0.91013834  0.88979496  0.04043842    -0.06700
C1046       C  0.91626863  0.85504784  0.02432209     0.14100
C1047       C  0.95259338  0.84551186  0.00644945    -0.23600
H1048       H  0.89173782  0.80320940  0.01000778     0.15400
H1049       H  0.87206331  0.92370462  0.07055418     0.15400
C1050       C  0.81093987  0.88077262  0.07420104    -0.23500
H1051       H  0.95302758  0.81667433  0.99649372     0.05600
H1052       H  0.97531292  0.84887405  0.02670137     0.08900
H1053       H  0.95772157  0.86357948  0.98241874     0.08900
H1054       H  0.80375848  0.86062615  0.09596250     0.08900
H1055       H  0.78927158  0.88045637  0.05255457     0.08900
H1056       H  0.81130212  0.90853334  0.08684943     0.05600
C1057       C  0.08670276  0.13077261  0.96718327    -0.20200
C1058       C  0.09811060  0.09390398  0.96472562    -0.06700
C1059       C  0.13632683  0.08668632  0.95970231     0.14100
C1060       C  0.16166825  0.11597942  0.96042400    -0.20200
C1061       C  0.15045679  0.15253340  0.96625990    -0.06700
C1062       C  0.11199058  0.16000278  0.96822941     0.14100
C1063       C  0.09674218  0.19831712  0.97281683    -0.23600
H1064       H  0.05760376  0.13693532  0.97003962     0.15400
H1065       H  0.19082213  0.10992003  0.95780977     0.15400
C1066       C  0.15125844  0.04840444  0.95425507    -0.23500
H1067       H  0.06609000  0.19864193  0.97307245     0.05600
H1068       H  0.10576957  0.21588853  0.94954108     0.08900
H1069       H  0.10611302  0.21018068  0.99937810     0.08900
H1070       H  0.13756486  0.03533586  0.93024182     0.08900
H1071       H  0.14676093  0.03172144  0.97939379     0.08900
H1072       H  0.18141960  0.04847402  0.94883120     0.05600
C1073       C  0.02209688  0.88392976  0.83236513    -0.20200
C1074       C  0.03744746  0.84931434  0.84011704    -0.06700
C1075       C  0.05513358  0.84375163  0.87451531     0.14100
C1076       C  0.05490116  0.87215788  0.90085350    -0.20200
C1077       C  0.03671709  0.90545718  0.89392736    -0.06700
C1078       C  0.02104802  0.91179654  0.85888251     0.14100
C1079       C  0.00273137  0.94782232  0.84942148    -0.23600
H1080       H  0.00884036  0.88864415  0.80599772     0.15400
H1081       H  0.06698657  0.86753189  0.92777778     0.15400
C1082       C  0.07416248  0.80814430  0.88376681    -0.23500
H1083       H  0.99364131  0.94867899  0.82021736     0.05600
H1084       H  0.02245432  0.97071765  0.85389041     0.08900
H1085       H  0.97793473  0.95212141  0.86675386     0.08900
H1086       H  0.09498678  0.80165307  0.86234438     0.08900
H1087       H  0.05372384  0.78556060  0.88558372     0.08900
H1088       H  0.08862339  0.80965867  0.91070304     0.05600
C1089       C  0.09246697  0.94240342  0.13060873    -0.20200
C1090       C  0.10274797  0.95192241  0.09439872    -0.06700
C1091       C  0.14084360  0.95820516  0.08700181     0.14100
C1092       C  0.16634457  0.95802515  0.11623066    -0.20200
C1093       C  0.15524403  0.95150521  0.15250507    -0.06700
C1094       C  0.11817816  0.94236096  0.15966761     0.14100
C1095       C  0.10542100  0.93459687  0.19832735    -0.23600
H1096       H  0.06373213  0.93679091  0.13671551     0.15400
H1097       H  0.19495375  0.96515207  0.11108017     0.15400
C1098       C  0.15507476  0.96719926  0.04905879    -0.23500
H1099       H  0.07549140  0.92808402  0.19930508     0.05600
H1100       H  0.11043641  0.95894005  0.21603694     0.08900
H1101       H  0.12085215  0.91076406  0.20959317     0.08900
H1102       H  0.14263047  0.99323760  0.03915109     0.08900
H1103       H  0.14848544  0.94444689  0.02981267     0.08900
H1104       H  0.18550786  0.97088723  0.04880638     0.05600
C1105       C  0.83494159  0.03267392  0.88728893    -0.20200
C1106       C  0.84498628  0.04664455  0.85258395    -0.06700
C1107       C  0.88089580  0.06167960  0.84825000     0.14100
C1108       C  0.90635838  0.05936888  0.87757785    -0.20200
C1109       C  0.89707979  0.04189118  0.91069819    -0.06700
C1110       C  0.86052052  0.02969179  0.91609125     0.14100
C1111       C  0.84852480  0.01284081  0.95208202    -0.23600
H1112       H  0.80740364  0.02170132  0.89138797     0.15400
H1113       H  0.93443002  0.06904194  0.87373909     0.15400
C1114       C  0.89284516  0.07980251  0.81294391    -0.23500
H1115       H  0.81859252  0.00621506  0.95209780     0.05600
H1116       H  0.85389865  0.03239205  0.97490693     0.08900
H1117       H  0.86377453  0.98694408  0.95727009     0.08900
H1118       H  0.87300145  0.10180884  0.80543508     0.08900
H1119       H  0.89447260  0.05928558  0.79046047     0.08900
H1120       H  0.92059293  0.09250145  0.81564426     0.05600
C1121       C  0.95425327  0.10716866  0.16736092    -0.20200
C1122       C  0.95712743  0.14394674  0.15657872    -0.06700
C1123       C  0.95850125  0.15279988  0.11894540     0.14100
C1124       C  0.95901538  0.12454339  0.09280752    -0.20200
C1125       C  0.95936186  0.08724463  0.10325226    -0.06700
C1126       C  0.95543416  0.07855219  0.14131029     0.14100
C1127       C  0.95359414  0.03959119  0.15525555    -0.23600
H1128       H  0.95333200  0.10075717  0.19651014     0.15400
H1129       H  0.96119148  0.13194848  0.06401297     0.15400
C1130       C  0.96069819  0.19220290  0.10642718    -0.23500
H1131       H  0.94869205  0.03850428  0.18541399     0.05600
H1132       H  0.98009120  0.02527158  0.14995122     0.08900
H1133       H  0.93052014  0.02482409  0.14162077     0.08900
H1134       H  0.98622727  0.20516345  0.11726312     0.08900
H1135       H  0.93633158  0.20755549  0.11671600     0.08900
H1136       H  0.96116826  0.19446859  0.07594943     0.05600
loop_ 
_geom_bond_atom_site_label_1 
_geom_bond_atom_site_label_2 
_geom_bond_distance 
_geom_bond_site_symmetry_2 
_ccdc_geom_bond_type 
O1           C17   1.271   1_565  A
O1           Zn7   1.996       .  S
C2           O18   1.270   1_455  A
C2           O15   1.277       .  A
C2         C1077   1.476       .  S
O3           C16   1.276       .  A
O3          Cd10   2.093       .  S
O4           C22   1.276       .  A
O4          Cd13   2.080   1_554  S
O5           C19   1.277       .  A
O5           Cd9   2.074   1_455  S
O6           C17   1.276       .  A
O6           Cd9   2.101       .  S
Zn7          O18   1.987       .  S
Zn7          O20   1.984       .  S
Zn7          O12   1.917   1_556  S
O8           C19   1.276       .  A
O8          Cd13   2.083   1_545  S
Cd9          O11   2.073   1_556  S
Cd9          O12   2.006   1_546  S
Cd10         O14   2.078   1_565  S
Cd10         O23   2.084   1_655  S
Cd10         O12   2.015       .  S
O11          C21   1.278       .  A
O12         Cd13   2.012   1_654  S
Cd13         O15   2.098       .  S
O14          C21   1.275       .  A
C16          O20   1.270   1_554  A
C16        C1045   1.472       .  S
C17        C1109   1.479       .  S
C19        C1058   1.502       .  S
C21        C1125   1.499       .  S
C22          O23   1.278       .  A
C22        C1090   1.501       .  S
O24          C40   1.271       .  A
O24         Zn30   1.991       .  S
C25          O41   1.269       .  A
C25          O38   1.277       .  A
C25         C965   1.477       .  S
O26          C39   1.273       .  A
O26         Cd33   2.084       .  S
O27          C45   1.275       .  A
O27         Cd36   2.080   1_655  S
O28          C42   1.276       .  A
O28         Cd32   2.081       .  S
O29          C40   1.277       .  A
O29         Cd32   2.101       .  S
Zn30         O41   1.972       .  S
Zn30         O43   1.997   1_455  S
Zn30         O35   1.910   1_455  S
O31          C42   1.279       .  A
O31         Cd36   2.087       .  S
Cd32         O34   2.081   1_455  S
Cd32         O35   2.006   1_455  S
Cd33         O37   2.066       .  S
Cd33         O46   2.055       .  S
Cd33         O35   2.002       .  S
O34          C44   1.277       .  A
O35         Cd36   2.018   1_655  S
Cd36         O38   2.102       .  S
O37          C44   1.274       .  A
C39          O43   1.270       .  A
C39        C1122   1.471       .  S
C40         C994   1.476       .  S
C42        C1010   1.503       .  S
C44         C981   1.487       .  S
C45          O46   1.274       .  A
C45        C1029   1.486       .  S
O47          C63   1.271       .  A
O47         Zn53   1.995       .  S
C48          O64   1.272       .  A
C48          O61   1.275       .  A
C48         C930   1.471       .  S
O49          C62   1.274       .  A
O49         Cd56   2.080       .  S
O50          C68   1.274       .  A
O50         Cd59   2.069       .  S
O51          C65   1.274       .  A
O51         Cd55   2.065       .  S
O52          C63   1.275       .  A
O52         Cd55   2.097       .  S
Zn53         O64   1.994       .  S
Zn53         O66   1.991       .  S
Zn53         O58   1.914       .  S
O54          C65   1.276       .  A
O54         Cd59   2.069       .  S
Cd55         O57   2.074       .  S
Cd55         O58   2.012       .  S
Cd56         O60   2.057       .  S
Cd56         O69   2.086       .  S
Cd56         O58   2.006       .  S
O57          C67   1.276       .  A
O58         Cd59   2.005       .  S
Cd59         O61   2.085       .  S
O60          C67   1.272       .  A
C62          O66   1.271       .  A
C62         C882   1.467       .  S
C63         C946   1.478       .  S
C65         C898   1.490       .  S
C67        C1026   1.489       .  S
C68          O69   1.277       .  A
C68         C914   1.492       .  S
O70          C86   1.272       .  A
O70         Zn76   1.994       .  S
C71          O87   1.270   1_565  A
C71          O84   1.275       .  A
C71         C850   1.473       .  S
O72          C85   1.273       .  A
O72         Cd79   2.074       .  S
O73          C91   1.277       .  A
O73         Cd82   2.084       .  S
O74          C88   1.276       .  A
O74         Cd78   2.082   1_565  S
O75          C86   1.277       .  A
O75         Cd78   2.105       .  S
Zn76         O87   1.990       .  S
Zn76         O89   2.005       .  S
Zn76         O81   1.921       .  S
O77          C88   1.277       .  A
O77         Cd82   2.069       .  S
Cd78         O80   2.092       .  S
Cd78         O81   2.018       .  S
Cd79         O83   2.066       .  S
Cd79         O92   2.066   1_545  S
Cd79         O81   2.001       .  S
O80          C90   1.277       .  A
O81         Cd82   2.013   1_545  S
Cd82         O84   2.096       .  S
O83          C90   1.276       .  A
C85          O89   1.273       .  A
C85         C837   1.469       .  S
C86         C949   1.480       .  S
C88         C821   1.497       .  S
C90        C1106   1.495       .  S
C91          O92   1.273       .  A
C91         C866   1.494       .  S
O93         C109   1.271       .  A
O93         Zn99   2.001   1_565  S
C94         O110   1.272       .  A
C94         O107   1.275       .  A
C94         C962   1.479       .  S
O95         C108   1.275       .  A
O95        Cd102   2.085       .  S
O96         C114   1.274       .  A
O96        Cd105   2.071       .  S
O97         C111   1.275       .  A
O97        Cd101   2.079       .  S
O98         C109   1.277       .  A
O98        Cd101   2.101       .  S
Zn99        O110   1.988       .  S
Zn99        O112   1.996       .  S
Zn99        O104   1.916   1_545  S
O100        C111   1.277       .  A
O100       Cd105   2.074   1_565  S
Cd101       O103   2.078       .  S
Cd101       O104   2.010       .  S
Cd102       O106   2.062   1_545  S
Cd102       O115   2.083       .  S
Cd102       O104   2.008   1_545  S
O103        C113   1.277       .  A
O104       Cd105   2.009   1_565  S
Cd105       O107   2.089       .  S
O106        C113   1.273       .  A
C108        O112   1.271       .  A
C108        C770   1.472       .  S
C109       C1093   1.477       .  S
C111        C789   1.500       .  S
C113        C802   1.492       .  S
C114        O115   1.277       .  A
C114        C754   1.494       .  S
O116        C132   1.270       .  A
O116       Zn122   1.991       .  S
C117        O133   1.270       .  A
C117        O130   1.275       .  A
C117        C722   1.471       .  S
O118        C131   1.274       .  A
O118       Cd125   2.090       .  S
O119        C137   1.274       .  A
O119       Cd128   2.065   1_655  S
O120        C134   1.274       .  A
O120       Cd124   2.074       .  S
O121        C132   1.276       .  A
O121       Cd124   2.097       .  S
Zn122       O133   1.984       .  S
Zn122       O135   1.988       .  S
Zn122       O127   1.912       .  S
O123        C134   1.278       .  A
O123       Cd128   2.086       .  S
Cd124       O126   2.075   1_455  S
Cd124       O127   2.006       .  S
Cd125       O129   2.063       .  S
Cd125       O138   2.074       .  S
Cd125       O127   2.009   1_655  S
O126        C136   1.278       .  A
O127       Cd128   2.010       .  S
Cd128       O130   2.088       .  S
O129        C136   1.273       .  A
C131        O135   1.270   1_655  A
C131        C738   1.472       .  S
C132        C690   1.474       .  S
C134       C1013   1.503       .  S
C136        C901   1.494       .  S
C137        O138   1.276       .  A
C137        C706   1.487       .  S
O139        C155   1.273       .  A
O139       Zn145   1.997       .  S
C140        O156   1.273       .  A
C140        O153   1.277       .  A
C140        C661   1.480       .  S
O141        C154   1.272       .  A
O141       Cd148   2.072       .  S
O142        C160   1.277       .  A
O142       Cd151   2.076       .  S
O143        C157   1.276       .  A
O143       Cd147   2.080       .  S
O144        C155   1.276       .  A
O144       Cd147   2.090       .  S
Zn145       O156   2.003       .  S
Zn145       O158   1.999       .  S
Zn145       O150   1.912       .  S
O146        C157   1.279       .  A
O146       Cd151   2.084       .  S
Cd147       O149   2.082       .  S
Cd147       O150   2.008       .  S
Cd148       O152   2.056       .  S
Cd148       O161   2.056       .  S
Cd148       O150   1.999       .  S
O149        C159   1.277       .  A
O150       Cd151   2.009       .  S
Cd151       O153   2.103       .  S
O152        C159   1.272       .  A
C154        O158   1.272       .  A
C154        C626   1.472       .  S
C155        C677   1.473       .  S
C157        C642   1.502       .  S
C159        C933   1.490       .  S
C160        O161   1.272       .  A
C160        C834   1.491       .  S
O162        C178   1.271       .  A
O162       Zn168   1.994       .  S
C163        O179   1.271       .  A
C163        O176   1.276       .  A
C163        C869   1.476       .  S
O164        C177   1.275       .  A
O164       Cd171   2.086       .  S
O165        C183   1.277       .  A
O165       Cd174   2.080   1_554  S
O166        C180   1.278       .  A
O166       Cd170   2.078       .  S
O167        C178   1.276       .  A
O167       Cd170   2.098       .  S
Zn168       O179   1.997       .  S
Zn168       O181   1.988       .  S
Zn168       O173   1.913       .  S
O169        C180   1.275       .  A
O169       Cd174   2.071       .  S
Cd170       O172   2.081   1_556  S
Cd170       O173   2.011       .  S
Cd171       O175   2.071       .  S
Cd171       O184   2.075       .  S
Cd171       O173   2.004   1_554  S
O172        C182   1.277       .  A
O173       Cd174   2.008       .  S
Cd174       O176   2.096       .  S
O175        C182   1.274       .  A
C177        O181   1.271   1_554  A
C177       C1042   1.474       .  S
C178        C610   1.475       .  S
C180        C565   1.499       .  S
C182        C594   1.500       .  S
C183        O184   1.275       .  A
C183        C578   1.495       .  S
O185        C201   1.271       .  A
O185       Zn191   1.997       .  S
C186        O202   1.271       .  A
C186        O199   1.277       .  A
C186        C530   1.481       .  S
O187        C200   1.274       .  A
O187       Cd194   2.085       .  S
O188        C206   1.276       .  A
O188       Cd197   2.090   1_554  S
O189        C203   1.278       .  A
O189       Cd193   2.083       .  S
O190        C201   1.277       .  A
O190       Cd193   2.105       .  S
Zn191       O202   1.992       .  S
Zn191       O204   1.997   1_556  S
Zn191       O196   1.916   1_556  S
O192        C203   1.275       .  A
O192       Cd197   2.074       .  S
Cd193       O195   2.082   1_556  S
Cd193       O196   2.016   1_556  S
Cd194       O198   2.062       .  S
Cd194       O207   2.067       .  S
Cd194       O196   2.004       .  S
O195        C205   1.276       .  A
O196       Cd197   2.014   1_554  S
Cd197       O199   2.101       .  S
O198        C205   1.275       .  A
C200        O204   1.271       .  A
C200        C546   1.470       .  S
C201        C658   1.480       .  S
C203       C1061   1.501       .  S
C205        C773   1.488       .  S
C206        O207   1.276       .  A
C206        C997   1.499       .  S
O208        C224   1.271       .  A
O208       Zn214   1.995       .  S
C209        O225   1.271       .  A
C209        O222   1.277       .  A
C209        C978   1.476       .  S
O210        C223   1.275       .  A
O210       Cd217   2.085       .  S
O211        C229   1.276       .  A
O211       Cd220   2.085       .  S
O212        C226   1.277       .  A
O212       Cd216   2.070       .  S
O213        C224   1.276       .  A
O213       Cd216   2.095       .  S
Zn214       O225   1.987       .  S
Zn214       O227   1.992       .  S
Zn214       O219   1.912       .  S
O215        C226   1.275       .  A
O215       Cd220   2.078       .  S
Cd216       O218   2.073       .  S
Cd216       O219   2.005       .  S
Cd217       O221   2.073       .  S
Cd217       O230   2.068       .  S
Cd217       O219   2.004       .  S
O218        C228   1.274       .  A
O219       Cd220   2.011       .  S
Cd220       O222   2.097       .  S
O221        C228   1.276       .  A
C223        O227   1.271       .  A
C223        C709   1.472       .  S
C224        C917   1.478       .  S
C226        C498   1.499       .  S
C228        C514   1.496       .  S
C229        O230   1.276       .  A
C229        C597   1.500       .  S
O231        C247   1.269       .  A
O231       Zn237   1.978       .  S
C232        O248   1.270   1_545  A
C232        O245   1.275       .  A
C232        C757   1.475       .  S
O233        C246   1.277       .  A
O233       Cd240   2.105       .  S
O234        C252   1.276       .  A
O234       Cd243   2.057       .  S
O235        C249   1.275       .  A
O235       Cd239   2.077   1_545  S
O236        C247   1.275       .  A
O236       Cd239   2.089       .  S
Zn237       O248   1.992       .  S
Zn237       O250   1.979       .  S
Zn237       O242   1.909       .  S
O238        C249   1.278       .  A
O238       Cd243   2.082       .  S
Cd239       O241   2.068       .  S
Cd239       O242   2.006       .  S
Cd240       O244   2.087       .  S
Cd240       O253   2.085   1_565  S
Cd240       O242   2.018       .  S
O241        C251   1.273       .  A
O242       Cd243   2.005   1_565  S
Cd243       O245   2.095       .  S
O244        C251   1.279       .  A
C246        O250   1.269       .  A
C246        C469   1.476       .  S
C247        C482   1.474       .  S
C249        C645   1.503       .  S
C251        C853   1.498       .  S
C252        O253   1.277       .  A
C252        C885   1.493       .  S
O254        C270   1.273   1_455  A
O254       Zn260   2.000       .  S
C255        O271   1.272       .  A
C255        O268   1.276       .  A
C255        C434   1.480       .  S
O256        C269   1.278       .  A
O256       Cd263   2.105       .  S
O257        C275   1.275       .  A
O257       Cd266   2.064       .  S
O258        C272   1.274       .  A
O258       Cd262   2.071       .  S
O259        C270   1.274       .  A
O259       Cd262   2.084       .  S
Zn260       O271   1.997       .  S
Zn260       O273   1.998       .  S
Zn260       O265   1.915       .  S
O261        C272   1.277       .  A
O261       Cd266   2.078   1_655  S
Cd262       O264   2.061       .  S
Cd262       O265   2.002   1_655  S
Cd263       O267   2.097   1_455  S
Cd263       O276   2.088       .  S
Cd263       O265   2.016       .  S
O264        C274   1.273       .  A
O265       Cd266   2.011       .  S
Cd266       O268   2.095       .  S
O267        C274   1.280       .  A
C269        O273   1.272       .  A
C269        C450   1.478       .  S
C270        C741   1.474       .  S
C272        C818   1.496       .  S
C274        C613   1.497       .  S
C275        O276   1.277       .  A
C275       C1074   1.488       .  S
O277        C293   1.270       .  A
O277       Zn283   1.992       .  S
C278        O294   1.272       .  A
C278        O291   1.275       .  A
C278        C418   1.472       .  S
O279        C292   1.275       .  A
O279       Cd286   2.090       .  S
O280        C298   1.277       .  A
O280       Cd289   2.076       .  S
O281        C295   1.275       .  A
O281       Cd285   2.062       .  S
O282        C293   1.273       .  A
O282       Cd285   2.081       .  S
Zn283       O294   2.001       .  S
Zn283       O296   1.999       .  S
Zn283       O288   1.917       .  S
O284        C295   1.274       .  A
O284       Cd289   2.073       .  S
Cd285       O287   2.072       .  S
Cd285       O288   2.006       .  S
Cd286       O290   2.078       .  S
Cd286       O299   2.069       .  S
Cd286       O288   2.006       .  S
O287        C297   1.274       .  A
O288       Cd289   2.008       .  S
Cd289       O291   2.087       .  S
O290        C297   1.277       .  A
C292        O296   1.272       .  A
C292        C466   1.473       .  S
C293        C805   1.470       .  S
C295        C402   1.491       .  S
C297        C581   1.495       .  S
C298        O299   1.274       .  A
C298        C517   1.497       .  S
O300        C316   1.270       .  A
O300       Zn306   1.986       .  S
C301        O317   1.270       .  A
C301        O314   1.275       .  A
C301        C725   1.475       .  S
O302        C315   1.274       .  A
O302       Cd309   2.090       .  S
O303        C321   1.277       .  A
O303       Cd312   2.079       .  S
O304        C318   1.275       .  A
O304       Cd308   2.080       .  S
O305        C316   1.277       .  A
O305       Cd308   2.101       .  S
Zn306       O317   1.984       .  S
Zn306       O319   1.988       .  S
Zn306       O311   1.911       .  S
O307        C318   1.278       .  A
O307       Cd312   2.078       .  S
Cd308       O310   2.081       .  S
Cd308       O311   2.013       .  S
Cd309       O313   2.061       .  S
Cd309       O322   2.067       .  S
Cd309       O311   2.008       .  S
O310        C320   1.276       .  A
O311       Cd312   2.012       .  S
Cd312       O314   2.091       .  S
O313        C320   1.275       .  A
C315        O319   1.269       .  A
C315        C386   1.470       .  S
C316        C437   1.479       .  S
C318        C786   1.501       .  S
C320        C485   1.484       .  S
C321        O322   1.273       .  A
C321        C421   1.494       .  S
O323        C339   1.271       .  A
O323       Zn329   1.992       .  S
C324        O340   1.272       .  A
C324        O337   1.275       .  A
C324        C370   1.472       .  S
O325        C338   1.276       .  A
O325       Cd332   2.099       .  S
O326        C344   1.277       .  A
O326       Cd335   2.085       .  S
O327        C341   1.278       .  A
O327       Cd331   2.082       .  S
O328        C339   1.274       .  A
O328       Cd331   2.088       .  S
Zn329       O340   1.996       .  S
Zn329       O342   1.993       .  S
Zn329       O334   1.917       .  S
O330        C341   1.275       .  A
O330       Cd335   2.074       .  S
Cd331       O333   2.080       .  S
Cd331       O334   2.011       .  S
Cd332       O336   2.073       .  S
Cd332       O345   2.080       .  S
Cd332       O334   2.011       .  S
O333        C343   1.276       .  A
O334       Cd335   2.008       .  S
Cd335       O337   2.087       .  S
O336        C343   1.277       .  A
C338        O342   1.271       .  A
C338        C533   1.481       .  S
C339        C674   1.470       .  S
C341        C389   1.498       .  S
C343        C693   1.491       .  S
C344        O345   1.278       .  A
C344        C453   1.496       .  S
O346        C362   1.272       .  A
O346       Zn352   1.996       .  S
C347        O363   1.271       .  A
C347        O360   1.275       .  A
C347        C549   1.471       .  S
O348        C361   1.275       .  A
O348       Cd355   2.093       .  S
O349        C367   1.277       .  A
O349       Cd358   2.074       .  S
O350        C364   1.276       .  A
O350       Cd354   2.068   1_554  S
O351        C362   1.274       .  A
O351       Cd354   2.080       .  S
Zn352       O363   1.995   1_556  S
Zn352       O365   1.986       .  S
Zn352       O357   1.912   1_556  S
O353        C364   1.274       .  A
O353       Cd358   2.072       .  S
Cd354       O356   2.067       .  S
Cd354       O357   2.003   1_556  S
Cd355       O359   2.075       .  S
Cd355       O368   2.064   1_556  S
Cd355       O357   2.007   1_556  S
O356        C366   1.273       .  A
O357       Cd358   2.007       .  S
Cd358       O360   2.089       .  S
O359        C366   1.277       .  A
C361        O365   1.270       .  A
C361        C373   1.475       .  S
C362        C629   1.470       .  S
C364        C501   1.497       .  S
C366        C562   1.497       .  S
C367        O368   1.273       .  A
C367        C405   1.495       .  S
C369        C370   1.404       .  A
C369        C374   1.409       .  A
C369        H376   1.084       .  S
C370        C371   1.411       .  A
C371        C372   1.398       .  A
C371        C378   1.509       .  S
C372        C373   1.402       .  A
C372        H377   1.085       .  S
C373        C374   1.413       .  A
C374        C375   1.505       .  S
C375        H379   1.111       .  S
C375        H380   1.111       .  S
C375        H381   1.110       .  S
C378        H382   1.109       .  S
C378        H383   1.110       .  S
C378        H384   1.111       .  S
C385        C386   1.398       .  A
C385        C390   1.406       .  A
C385        H392   1.085       .  S
C386        C387   1.407       .  A
C387        C388   1.403       .  A
C387        C394   1.506       .  S
C388        C389   1.410       .  A
C388        H393   1.083       .  S
C389        C390   1.425       .  A
C390        C391   1.508       .  S
C391        H395   1.111       .  S
C391        H396   1.111       .  S
C391        H397   1.109       .  S
C394        H398   1.110       .  S
C394        H399   1.108       .  S
C394        H400   1.111       .  S
C401        C402   1.405       .  A
C401        C406   1.401       .  A
C401        H408   1.086       .  S
C402        C403   1.418       .  A
C403        C404   1.406       .  A
C403        C410   1.509       .  S
C404        C405   1.408       .  A
C404        H409   1.086       .  S
C405        C406   1.422       .  A
C406        C407   1.510       .  S
C407        H411   1.111       .  S
C407        H412   1.110       .  S
C407        H413   1.110       .  S
C410        H414   1.110       .  S
C410        H415   1.109       .  S
C410        H416   1.111       .  S
C417        C418   1.398       .  A
C417        C422   1.407       .  A
C417        H424   1.086       .  S
C418        C419   1.410       .  A
C419        C420   1.401       .  A
C419        C426   1.509       .  S
C420        C421   1.408       .  A
C420        H425   1.085       .  S
C421        C422   1.424       .  A
C422        C423   1.508       .  S
C423        H427   1.111       .  S
C423        H428   1.110       .  S
C423        H429   1.109       .  S
C426        H430   1.110       .  S
C426        H431   1.110       .  S
C426        H432   1.111       .  S
C433        C434   1.402       .  A
C433        C438   1.399       .  A
C433        H440   1.085       .  S
C434        C435   1.414       .  A
C435        C436   1.411       .  A
C435        C442   1.505       .  S
C436        C437   1.405       .  A
C436        H441   1.084       .  S
C437        C438   1.415       .  A
C438        C439   1.510       .  S
C439        H443   1.111       .  S
C439        H444   1.110       .  S
C439        H445   1.109       .  S
C442        H446   1.110       .  S
C442        H447   1.110       .  S
C442        H448   1.111       .  S
C449        C450   1.402       .  A
C449        C454   1.410       .  A
C449        H456   1.084       .  S
C450        C451   1.410       .  A
C451        C452   1.404       .  A
C451        C458   1.508       .  S
C452        C453   1.409       .  A
C452        H457   1.083       .  S
C453        C454   1.422       .  A
C454        C455   1.508       .  S
C455        H459   1.111       .  S
C455        H460   1.109       .  S
C455        H461   1.110       .  S
C458        H462   1.109       .  S
C458        H463   1.110       .  S
C458        H464   1.111       .  S
C465        C466   1.400       .  A
C465        C470   1.399       .  A
C465        H472   1.084       .  S
C466        C467   1.411       .  A
C467        C468   1.410       .  A
C467        C474   1.505       .  S
C468        C469   1.406       .  A
C468        H473   1.083       .  S
C469        C470   1.414       .  A
C470        C471   1.510       .  S
C471        H475   1.111       .  S
C471        H476   1.110       .  S
C471        H477   1.109       .  S
C474        H478   1.110       .  S
C474        H479   1.110       .  S
C474        H480   1.111       .  S
C481        C482   1.402       .  A
C481        C486   1.408       .  A
C481        H488   1.084       .  S
C482        C483   1.414       .  A
C483        C484   1.399       .  A
C483        C490   1.511       .  S
C484        C485   1.405       .  A
C484        H489   1.084       .  S
C485        C486   1.417       .  A
C486        C487   1.506       .  S
C487        H491   1.111       .  S
C487        H492   1.110       .  S
C487        H493   1.109       .  S
C490        H494   1.110       .  S
C490        H495   1.109       .  S
C490        H496   1.111       .  S
C497        C498   1.409       .  A
C497        C502   1.406       .  A
C497        H504   1.083       .  S
C498        C499   1.421       .  A
C499        C500   1.405       .  A
C499        C506   1.510       .  S
C500        C501   1.408       .  A
C500        H505   1.083       .  S
C501        C502   1.420       .  A
C502        C503   1.510       .  S
C503        H507   1.111       .  S
C503        H508   1.110       .  S
C503        H509   1.110       .  S
C506        H510   1.110       .  S
C506        H511   1.110       .  S
C506        H512   1.111       .  S
C513        C514   1.407       .  A
C513        C518   1.405       .  A
C513        H520   1.085       .  S
C514        C515   1.420       .  A
C515        C516   1.405       .  A
C515        C522   1.509       .  S
C516        C517   1.407       .  A
C516        H521   1.085       .  S
C517        C518   1.422       .  A
C518        C519   1.510       .  S
C519        H523   1.111       .  S
C519        H524   1.110       .  S
C519        H525   1.110       .  S
C522        H526   1.110       .  S
C522        H527   1.109       .  S
C522        H528   1.111       .  S
C529        C530   1.406       .  A
C529        C534   1.412       .  A
C529        H536   1.082       .  S
C530        C531   1.415       .  A
C531        C532   1.400       .  A
C531        C538   1.510       .  S
C532        C533   1.403       .  A
C532        H537   1.082       .  S
C533        C534   1.413       .  A
C534        C535   1.505       .  S
C535        H539   1.111       .  S
C535        H540   1.110       .  S
C535        H541   1.111       .  S
C538        H542   1.110       .  S
C538        H543   1.109       .  S
C538        H544   1.111       .  S
C545        C546   1.403       .  A
C545        C550   1.407       .  A
C545        H552   1.085       .  S
C546        C547   1.411       .  A
C547        C548   1.401       .  A
C547        C554   1.508       .  S
C548        C549   1.401       .  A
C548        H553   1.085       .  S
C549        C550   1.411       .  A
C550        C551   1.506       .  S
C551        H555   1.111       .  S
C551        H556   1.110       .  S
C551        H557   1.111       .  S
C554        H558   1.110       .  S
C554        H559   1.110       .  S
C554        H560   1.111       .  S
C561        C562   1.407       .  A
C561        C566   1.406       .  A
C561        H568   1.084       .  S
C562        C563   1.422       .  A
C563        C564   1.405       .  A
C563        C570   1.510       .  S
C564        C565   1.407       .  A
C564        H569   1.083       .  S
C565        C566   1.422       .  A
C566        C567   1.509       .  S
C567        H571   1.111       .  S
C567        H572   1.110       .  S
C567        H573   1.110       .  S
C570        H574   1.110       .  S
C570        H575   1.110   1_556  S
C570        H576   1.111       .  S
C577        C578   1.407       .  A
C577        C582   1.406       .  A
C577        H584   1.084       .  S
C578        C579   1.418       .  A
C579        C580   1.406       .  A
C579        C586   1.508       .  S
C580        C581   1.407       .  A
C580        H585   1.084       .  S
C581        C582   1.421       .  A
C582        C583   1.510       .  S
C583        H587   1.111       .  S
C583        H588   1.110       .  S
C583        H589   1.110       .  S
C586        H590   1.111       .  S
C586        H591   1.109       .  S
C586        H592   1.111       .  S
C593        C594   1.409       .  A
C593        C598   1.408       .  A
C593        H600   1.083       .  S
C594        C595   1.421       .  A
C595        C596   1.404       .  A
C595        C602   1.510       .  S
C596        C597   1.408       .  A
C596        H601   1.083       .  S
C597        C598   1.420       .  A
C598        C599   1.508       .  S
C599        H603   1.111       .  S
C599        H604   1.109       .  S
C599        H605   1.111       .  S
C602        H606   1.110       .  S
C602        H607   1.110       .  S
C602        H608   1.111       .  S
C609        C610   1.398       .  A
C609        C614   1.404       .  A
C609        H616   1.086       .  S
C610        C611   1.409       .  A
C611        C612   1.407       .  A
C611        C618   1.506       .  S
C612        C613   1.410       .  A
C612        H617   1.085       .  S
C613        C614   1.426       .  A
C614        C615   1.510       .  S
C615        H619   1.111       .  S
C615        H620   1.110       .  S
C615        H621   1.110       .  S
C618        H622   1.110       .  S
C618        H623   1.110       .  S
C618        H624   1.111       .  S
C625        C626   1.401       .  A
C625        C630   1.398       .  A
C625        H632   1.085       .  S
C626        C627   1.413       .  A
C627        C628   1.407       .  A
C627        C634   1.506       .  S
C628        C629   1.403       .  A
C628        H633   1.084       .  S
C629        C630   1.412       .  A
C630        C631   1.509       .  S
C631        H635   1.111       .  S
C631        H636   1.110       .  S
C631        H637   1.109       .  S
C634        H638   1.110       .  S
C634        H639   1.110       .  S
C634        H640   1.111       .  S
C641        C642   1.408       .  A
C641        C646   1.407       .  A
C641        H648   1.083       .  S
C642        C643   1.422       .  A
C643        C644   1.408       .  A
C643        C650   1.509       .  S
C644        C645   1.409       .  A
C644        H649   1.083       .  S
C645        C646   1.422       .  A
C646        C647   1.510       .  S
C647        H651   1.111       .  S
C647        H652   1.110       .  S
C647        H653   1.110       .  S
C650        H654   1.110       .  S
C650        H655   1.110       .  S
C650        H656   1.111       .  S
C657        C658   1.405       .  A
C657        C662   1.411       .  A
C657        H664   1.084       .  S
C658        C659   1.414       .  A
C659        C660   1.402       .  A
C659        C666   1.509       .  S
C660        C661   1.403       .  A
C660        H665   1.085       .  S
C661        C662   1.413       .  A
C662        C663   1.505       .  S
C663        H667   1.111       .  S
C663        H668   1.110       .  S
C663        H669   1.110       .  S
C666        H670   1.110       .  S
C666        H671   1.109       .  S
C666        H672   1.111       .  S
C673        C674   1.402       .  A
C673        C678   1.407       .  A
C673        H680   1.084       .  S
C674        C675   1.412       .  A
C675        C676   1.400       .  A
C675        C682   1.508       .  S
C676        C677   1.401       .  A
C676        H681   1.085       .  S
C677        C678   1.414       .  A
C678        C679   1.506       .  S
C679        H683   1.111       .  S
C679        H684   1.110       .  S
C679        H685   1.111       .  S
C682        H686   1.110       .  S
C682        H687   1.109       .  S
C682        H688   1.111       .  S
C689        C690   1.401       .  A
C689        C694   1.409       .  A
C689        H696   1.084       .  S
C690        C691   1.410       .  A
C691        C692   1.401       .  A
C691        C698   1.508       .  S
C692        C693   1.407       .  A
C692        H697   1.084       .  S
C693        C694   1.421       .  A
C694        C695   1.507       .  S
C695        H699   1.111       .  S
C695        H700   1.110       .  S
C695        H701   1.109       .  S
C698        H702   1.110       .  S
C698        H703   1.109       .  S
C698        H704   1.111       .  S
C705        C706   1.408       .  A
C705        C710   1.406       .  A
C705        H712   1.084       .  S
C706        C707   1.421       .  A
C707        C708   1.402       .  A
C707        C714   1.510       .  S
C708        C709   1.400       .  A
C708        H713   1.085       .  S
C709        C710   1.410       .  A
C710        C711   1.506       .  S
C711        H715   1.111       .  S
C711        H716   1.111       .  S
C711        H717   1.110       .  S
C714        H718   1.111       .  S
C714        H719   1.110       .  S
C714        H720   1.111       .  S
C721        C722   1.399       .  A
C721        C726   1.397       .  A
C721        H728   1.086       .  S
C722        C723   1.413       .  A
C723        C724   1.409       .  A
C723        C730   1.505       .  S
C724        C725   1.404       .  A
C724        H729   1.085       .  S
C725        C726   1.415       .  A
C726        C727   1.509       .  S
C727        H731   1.111       .  S
C727        H732   1.109       .  S
C727        H733   1.110       .  S
C730        H734   1.111       .  S
C730        H735   1.110       .  S
C730        H736   1.111       .  S
C737        C738   1.404       .  A
C737        C742   1.409       .  A
C737        H744   1.084       .  S
C738        C739   1.412       .  A
C739        C740   1.399       .  A
C739        C746   1.509       .  S
C740        C741   1.401       .  A
C740        H745   1.084       .  S
C741        C742   1.414       .  A
C742        C743   1.506       .  S
C743        H747   1.111       .  S
C743        H748   1.110       .  S
C743        H749   1.110       .  S
C746        H750   1.110       .  S
C746        H751   1.109   1_655  S
C746        H752   1.111   1_655  S
C753        C754   1.411       .  A
C753        C758   1.409       .  A
C753        H760   1.084       .  S
C754        C755   1.423       .  A
C755        C756   1.402       .  A
C755        C762   1.510       .  S
C756        C757   1.398       .  A
C756        H761   1.085       .  S
C757        C758   1.410       .  A
C758        C759   1.506       .  S
C759        H763   1.111       .  S
C759        H764   1.111       .  S
C759        H765   1.110       .  S
C762        H766   1.111   1_545  S
C762        H767   1.110       .  S
C762        H768   1.111   1_545  S
C769        C770   1.401       .  A
C769        C774   1.408       .  A
C769        H776   1.084       .  S
C770        C771   1.410       .  A
C771        C772   1.401       .  A
C771        C778   1.509       .  S
C772        C773   1.408       .  A
C772        H777   1.084       .  S
C773        C774   1.419       .  A
C774        C775   1.507       .  S
C775        H779   1.111       .  S
C775        H780   1.110       .  S
C775        H781   1.109       .  S
C778        H782   1.110       .  S
C778        H783   1.109       .  S
C778        H784   1.111       .  S
C785        C786   1.409       .  A
C785        C790   1.406       .  A
C785        H792   1.084       .  S
C786        C787   1.421       .  A
C787        C788   1.406       .  A
C787        C794   1.509       .  S
C788        C789   1.408       .  A
C788        H793   1.084       .  S
C789        C790   1.421       .  A
C790        C791   1.509       .  S
C791        H795   1.111       .  S
C791        H796   1.110       .  S
C791        H797   1.110       .  S
C794        H798   1.110       .  S
C794        H799   1.110       .  S
C794        H800   1.111       .  S
C801        C802   1.410       .  A
C801        C806   1.405       .  A
C801        H808   1.085       .  S
C802        C803   1.424       .  A
C803        C804   1.402       .  A
C803        C810   1.510       .  S
C804        C805   1.398       .  A
C804        H809   1.086       .  S
C805        C806   1.408       .  A
C806        C807   1.506       .  S
C807        H811   1.111       .  S
C807        H812   1.111       .  S
C807        H813   1.110       .  S
C810        H814   1.110       .  S
C810        H815   1.110       .  S
C810        H816   1.111       .  S
C817        C818   1.408       .  A
C817        C822   1.406       .  A
C817        H824   1.084       .  S
C818        C819   1.420       .  A
C819        C820   1.405       .  A
C819        C826   1.509       .  S
C820        C821   1.408       .  A
C820        H825   1.084       .  S
C821        C822   1.420       .  A
C822        C823   1.509       .  S
C823        H827   1.111       .  S
C823        H828   1.110       .  S
C823        H829   1.110       .  S
C826        H830   1.109       .  S
C826        H831   1.110       .  S
C826        H832   1.111       .  S
C833        C834   1.408       .  A
C833        C838   1.400       .  A
C833        H840   1.085       .  S
C834        C835   1.424       .  A
C835        C836   1.405       .  A
C835        C842   1.509       .  S
C836        C837   1.398       .  A
C836        H841   1.086       .  S
C837        C838   1.408       .  A
C838        C839   1.508       .  S
C839        H843   1.111       .  S
C839        H844   1.110       .  S
C839        H845   1.110       .  S
C842        H846   1.110       .  S
C842        H847   1.109       .  S
C842        H848   1.111       .  S
C849        C850   1.398       .  A
C849        C854   1.408       .  A
C849        H856   1.084       .  S
C850        C851   1.409       .  A
C851        C852   1.403       .  A
C851        C858   1.508       .  S
C852        C853   1.409       .  A
C852        H857   1.083       .  S
C853        C854   1.426       .  A
C854        C855   1.509       .  S
C855        H859   1.111       .  S
C855        H860   1.110       .  S
C855        H861   1.110       .  S
C858        H862   1.110       .  S
C858        H863   1.110       .  S
C858        H864   1.111       .  S
C865        C866   1.410       .  A
C865        C870   1.408       .  A
C865        H872   1.084       .  S
C866        C867   1.424       .  A
C867        C868   1.403       .  A
C867        C874   1.510       .  S
C868        C869   1.399       .  A
C868        H873   1.085       .  S
C869        C870   1.409       .  A
C870        C871   1.506       .  S
C871        H875   1.111       .  S
C871        H876   1.110       .  S
C871        H877   1.111       .  S
C874        H878   1.110       .  S
C874        H879   1.110       .  S
C874        H880   1.111       .  S
C881        C882   1.400       .  A
C881        C886   1.407       .  A
C881        H888   1.085       .  S
C882        C883   1.405       .  A
C883        C884   1.399       .  A
C883        C890   1.508       .  S
C884        C885   1.411       .  A
C884        H889   1.084       .  S
C885        C886   1.422       .  A
C886        C887   1.508       .  S
C887        H891   1.111       .  S
C887        H892   1.110       .  S
C887        H893   1.109       .  S
C890        H894   1.110       .  S
C890        H895   1.110       .  S
C890        H896   1.111       .  S
C897        C898   1.406       .  A
C897        C902   1.403       .  A
C897        H904   1.084       .  S
C898        C899   1.418       .  A
C899        C900   1.404       .  A
C899        C906   1.509       .  S
C900        C901   1.408       .  A
C900        H905   1.084       .  S
C901        C902   1.422       .  A
C902        C903   1.510       .  S
C903        H907   1.111       .  S
C903        H908   1.110       .  S
C903        H909   1.110       .  S
C906        H910   1.109       .  S
C906        H911   1.110       .  S
C906        H912   1.111       .  S
C913        C914   1.409       .  A
C913        C918   1.408       .  A
C913        H920   1.086       .  S
C914        C915   1.423       .  A
C915        C916   1.403       .  A
C915        C922   1.510       .  S
C916        C917   1.399       .  A
C916        H921   1.087       .  S
C917        C918   1.411       .  A
C918        C919   1.506       .  S
C919        H923   1.111       .  S
C919        H924   1.110       .  S
C919        H925   1.110       .  S
C922        H926   1.110       .  S
C922        H927   1.110       .  S
C922        H928   1.111       .  S
C929        C930   1.397       .  A
C929        C934   1.400       .  A
C929        H936   1.086       .  S
C930        C931   1.409       .  A
C931        C932   1.407       .  A
C931        C938   1.506       .  S
C932        C933   1.409       .  A
C932        H937   1.085       .  S
C933        C934   1.423       .  A
C934        C935   1.510       .  S
C935        H939   1.111       .  S
C935        H940   1.110       .  S
C935        H941   1.110       .  S
C938        H942   1.110       .  S
C938        H943   1.110       .  S
C938        H944   1.111       .  S
C945        C946   1.406       .  A
C945        C950   1.412       .  A
C945        H952   1.083       .  S
C946        C947   1.413       .  A
C947        C948   1.400       .  A
C947        C954   1.510       .  S
C948        C949   1.402       .  A
C948        H953   1.084       .  S
C949        C950   1.413       .  A
C950        C951   1.505       .  S
C951        H955   1.111       .  S
C951        H956   1.110       .  S
C951        H957   1.110       .  S
C954        H958   1.110       .  S
C954        H959   1.109       .  S
C954        H960   1.111       .  S
C961        C962   1.401       .  A
C961        C966   1.396       .  A
C961        H968   1.086       .  S
C962        C963   1.415       .  A
C963        C964   1.411       .  A
C963        C970   1.505       .  S
C964        C965   1.404       .  A
C964        H969   1.085       .  S
C965        C966   1.417       .  A
C966        C967   1.512       .  S
C967        H971   1.111       .  S
C967        H972   1.109       .  S
C967        H973   1.110       .  S
C970        H974   1.110       .  S
C970        H975   1.110       .  S
C970        H976   1.111       .  S
C977        C978   1.401       .  A
C977        C982   1.402       .  A
C977        H984   1.086       .  S
C978        C979   1.411       .  A
C979        C980   1.407       .  A
C979        C986   1.506       .  S
C980        C981   1.407       .  A
C980        H985   1.085       .  S
C981        C982   1.420       .  A
C982        C983   1.510       .  S
C983        H987   1.111       .  S
C983        H988   1.110       .  S
C983        H989   1.110       .  S
C986        H990   1.110       .  S
C986        H991   1.110       .  S
C986        H992   1.111       .  S
C993        C994   1.401       .  A
C993        C998   1.411       .  A
C993       H1000   1.084       .  S
C994        C995   1.409       .  A
C995        C996   1.401       .  A
C995       C1002   1.509       .  S
C996        C997   1.410       .  A
C996       H1001   1.084       .  S
C997        C998   1.423       .  A
C998        C999   1.507       .  S
C999       H1003   1.111       .  S
C999       H1004   1.109       .  S
C999       H1005   1.110       .  S
C1002      H1006   1.110       .  S
C1002      H1007   1.110       .  S
C1002      H1008   1.111       .  S
C1009      C1010   1.408       .  A
C1009      C1014   1.407       .  A
C1009      H1016   1.084       .  S
C1010      C1011   1.422       .  A
C1011      C1012   1.408       .  A
C1011      C1018   1.509       .  S
C1012      C1013   1.408       .  A
C1012      H1017   1.084       .  S
C1013      C1014   1.422       .  A
C1014      C1015   1.509       .  S
C1015      H1019   1.111       .  S
C1015      H1020   1.110       .  S
C1015      H1021   1.110       .  S
C1018      H1022   1.109       .  S
C1018      H1023   1.110       .  S
C1018      H1024   1.111       .  S
C1025      C1026   1.408       .  A
C1025      C1030   1.407       .  A
C1025      H1032   1.084       .  S
C1026      C1027   1.420       .  A
C1027      C1028   1.399       .  A
C1027      C1034   1.511       .  S
C1028      C1029   1.404       .  A
C1028      H1033   1.083       .  S
C1029      C1030   1.415       .  A
C1030      C1031   1.507       .  S
C1031      H1035   1.111       .  S
C1031      H1036   1.109       .  S
C1031      H1037   1.110       .  S
C1034      H1038   1.111       .  S
C1034      H1039   1.110       .  S
C1034      H1040   1.111       .  S
C1041      C1042   1.401       .  A
C1041      C1046   1.398       .  A
C1041      H1048   1.086       .  S
C1042      C1043   1.413       .  A
C1043      C1044   1.408       .  A
C1043      C1050   1.506       .  S
C1044      C1045   1.403       .  A
C1044      H1049   1.085       .  S
C1045      C1046   1.412       .  A
C1046      C1047   1.509       .  S
C1047      H1051   1.111   1_554  S
C1047      H1052   1.110       .  S
C1047      H1053   1.109   1_554  S
C1050      H1054   1.110       .  S
C1050      H1055   1.111       .  S
C1050      H1056   1.111       .  S
C1057      C1058   1.408       .  A
C1057      C1062   1.405       .  A
C1057      H1064   1.083       .  S
C1058      C1059   1.421       .  A
C1059      C1060   1.408       .  A
C1059      C1066   1.509       .  S
C1060      C1061   1.408       .  A
C1060      H1065   1.083       .  S
C1061      C1062   1.422       .  A
C1062      C1063   1.510       .  S
C1063      H1067   1.111       .  S
C1063      H1068   1.110       .  S
C1063      H1069   1.110       .  S
C1066      H1070   1.110       .  S
C1066      H1071   1.109       .  S
C1066      H1072   1.111       .  S
C1073      C1074   1.406       .  A
C1073      C1078   1.400       .  A
C1073      H1080   1.085       .  S
C1074      C1075   1.418       .  A
C1075      C1076   1.410       .  A
C1075      C1082   1.506       .  S
C1076      C1077   1.403       .  A
C1076      H1081   1.084       .  S
C1077      C1078   1.412       .  A
C1078      C1079   1.510       .  S
C1079      H1083   1.111   1_455  S
C1079      H1084   1.110       .  S
C1079      H1085   1.109   1_455  S
C1082      H1086   1.110       .  S
C1082      H1087   1.109       .  S
C1082      H1088   1.111       .  S
C1089      C1090   1.411       .  A
C1089      C1094   1.407       .  A
C1089      H1096   1.084       .  S
C1090      C1091   1.425       .  A
C1091      C1092   1.407       .  A
C1091      C1098   1.509       .  S
C1092      C1093   1.399       .  A
C1092      H1097   1.085       .  S
C1093      C1094   1.408       .  A
C1094      C1095   1.506       .  S
C1095      H1099   1.111       .  S
C1095      H1100   1.110       .  S
C1095      H1101   1.110       .  S
C1098      H1102   1.110       .  S
C1098      H1103   1.110       .  S
C1098      H1104   1.111       .  S
C1105      C1106   1.408       .  A
C1105      C1110   1.401       .  A
C1105      H1112   1.085       .  S
C1106      C1107   1.421       .  A
C1107      C1108   1.411       .  A
C1107      C1114   1.507       .  S
C1108      C1109   1.403       .  A
C1108      H1113   1.086       .  S
C1109      C1110   1.411       .  A
C1110      C1111   1.509       .  S
C1111      H1115   1.111       .  S
C1111      H1116   1.110       .  S
C1111      H1117   1.109   1_545  S
C1114      H1118   1.110       .  S
C1114      H1119   1.109       .  S
C1114      H1120   1.111       .  S
C1121      C1122   1.400       .  A
C1121      C1126   1.409       .  A
C1121      H1128   1.085       .  S
C1122      C1123   1.406       .  A
C1123      C1124   1.401       .  A
C1123      C1130   1.508       .  S
C1124      C1125   1.411       .  A
C1124      H1129   1.083       .  S
C1125      C1126   1.426       .  A
C1126      C1127   1.508       .  S
C1127      H1131   1.111       .  S
C1127      H1132   1.110       .  S
C1127      H1133   1.110       .  S
C1130      H1134   1.110       .  S
C1130      H1135   1.110       .  S
C1130      H1136   1.111       .  S
