geometry optimzed in LAMMPS
_audit_creation_date              2020-11-30 
_audit_creation_method            'lammps2cif' 
_symmetry_space_group_name_H-M    'P1' 
_symmetry_Int_Tables_number       1 
_symmetry_cell_setting            triclinic 
loop_ 
_symmetry_equiv_pos_as_xyz 
  x,y,z 
_cell_length_a                    39.56724096 
_cell_length_b                    40.443380425582 
_cell_length_c                    28.867297101378302 
_cell_angle_alpha                 87.36839119016349 
_cell_angle_beta                  91.85702217190837 
_cell_angle_gamma                 91.2412180459296 
loop_ 
_atom_site_label 
_atom_site_type_symbol 
_atom_site_fract_x 
_atom_site_fract_y 
_atom_site_fract_z 
_atom_site_charge 
C1          C  0.18923784  0.49130973  0.27362334     0.81700
N2          N  0.17348829  0.49194683  0.23079811    -0.76600
C3          C  0.13791966  0.99419886  0.21538223     0.84200
N4          N  0.11675064  0.99293072  0.25111964    -0.76500
C5          C  0.12805355  0.98736307  0.29516265     0.84200
N6          N  0.17031310  0.49178762  0.31234004    -0.78300
C7          C  0.28218679  0.48746092  0.23831516     0.81700
N8          N  0.30281858  0.49046679  0.27704864    -0.76600
C9          C  0.33709109  0.49072554  0.27246113     0.84200
N10         N  0.34990624  0.48766583  0.23032975    -0.76500
C11         C  0.32981126  0.48400390  0.19220073     0.84200
N12         N  0.29590057  0.48439656  0.19608761    -0.78300
C13         C  0.48527901  0.19381367  0.23216357     0.81700
N14         N  0.48519038  0.17690207  0.27408771    -0.76600
C15         C  0.48516483  0.14331489  0.27648185     0.84200
N16         N  0.48521412  0.12678301  0.23643387    -0.76500
C17         C  0.48521089  0.14333460  0.19428215     0.84200
N18         N  0.48520858  0.17693241  0.19242977    -0.78300
C19         C  0.48643377  0.28533697  0.26315801     0.81700
N20         N  0.48535735  0.30258063  0.30248848    -0.76600
C21         C  0.48557287  0.33620165  0.30001306     0.84200
N22         N  0.48703179  0.35237439  0.25771180    -0.76500
C23         C  0.48823202  0.33546132  0.21809729     0.84200
N24         N  0.48785849  0.30190082  0.22107689    -0.78300
O25         O  0.08063443  0.49390806  0.09619881    -0.73800
O26         O  0.03469074  0.49257530  0.14176625    -0.52700
C27         C  0.06663152  0.49351318  0.13578317     0.79900
O28         O  0.48223958  0.08255455  0.40856308    -0.58400
O29         O  0.49013576  0.03969729  0.36141477    -0.51400
C30         C  0.48632328  0.07042382  0.36834344     0.71900
O31         O  0.48385082  0.08295774  0.06946826    -0.73000
O32         O  0.48556626  0.03938525  0.12271128    -0.53500
C33         C  0.48522365  0.07043777  0.11163254     0.77900
O34         O  0.07049070  0.49465719  0.42290111    -0.58100
O35         O  0.02482007  0.49358131  0.37253206    -0.51200
C36         C  0.05695444  0.49396435  0.38202158     0.74500
Zr37       Zr  0.05960463  0.49283115  0.01588046     2.54700
O38         O  0.09225291  0.04714678  0.99790430    -0.78700
O39         O  0.09310237  0.45260026  0.50364371    -0.92100
Zr40       Zr  0.48080062  0.06050962  0.99061489     2.64700
O41         O  0.01577819  0.11022332  0.00432588    -0.97000
O42         O  0.43421924  0.09942878  0.48148308    -0.79100
O43         O  0.01770686  0.03193807  0.05110242    -0.82500
O44         O  0.02270002  0.02967669  0.46983134    -2.17200
O45         O  0.48319848  0.39717951  0.42344770    -0.65900
O46         O  0.47457225  0.44005322  0.37028368    -0.50400
C47         C  0.47936038  0.40939635  0.38133689     0.72900
O48         O  0.38947455  0.47714140  0.06753616    -0.58800
O49         O  0.43191268  0.47854752  0.12281787    -0.50700
C50         C  0.40081506  0.47560687  0.10982576     0.74700
O51         O  0.37716462  0.48337430  0.43259144    -0.70200
O52         O  0.41601460  0.48874393  0.37598010    -0.48800
C53         C  0.38528628  0.48617872  0.39003426     0.76100
O54         O  0.49034448  0.39535384  0.08524848    -0.65500
O55         O  0.48816716  0.43868671  0.13304782    -0.52700
C56         C  0.48946313  0.40776424  0.12579763     0.74500
Zr57       Zr  0.49234249  0.41832010  0.00396550     2.77500
O58         O  0.45139985  0.37249874  0.00374002    -0.96200
O59         O  0.03341362  0.37986402  0.01861443    -0.77100
Zr60       Zr  0.41633777  0.48290333  0.99253423     2.70100
O61         O  0.37718843  0.43583656  0.98757937    -0.78300
O62         O  0.36846457  0.03000610  0.00708700    -0.97400
Zr63       Zr  0.48443171  0.48844797  0.08541850     2.21500
Zr64       Zr  0.47303163  0.48984275  0.41230615     2.11100
O65         O  0.44236000  0.45098567  0.45990866    -2.46100
O66         O  0.45235630  0.44987528  0.04189876    -0.78100
O67         O  0.01321669  0.45924731  0.46088781    -0.70300
O68         O  0.44680386  0.02457603  0.03869047    -2.31300
O69         O  0.02307911  0.45565452  0.05658681    -2.27500
O70         O  0.44908247  0.02285253  0.44340555    -0.72100
H71         H  0.03694752  0.04388486  0.45052483     0.79900
H72         H  0.43380700  0.03723018  0.05921748     0.81000
H73         H  0.42803527  0.43679060  0.44122991     0.83300
H74         H  0.03591640  0.44270386  0.07963392     0.80900
H75         H  0.41820946  0.09165823  0.00379383     0.43900
H76         H  0.37840129  0.04365232  0.45511772     0.42900
H77         H  0.38700963  0.41868555  0.00927374     0.42500
H78         H  0.42853574  0.37588312  0.47712008     0.40500
H79         H  0.04432666  0.39334298  0.49193545     0.43600
H80         H  0.09783624  0.43822160  0.05390401     0.38400
H81         H  0.07911155  0.06623136  0.00705109     0.44500
H82         H  0.03722245  0.10464143  0.48028385     0.40900
H83         H  0.46411738  0.35353952  0.99325066     0.45800
H84         H  0.12428917  0.46459726  0.03531696     0.44600
H85         H  0.00171506  0.12920257  0.99359823     0.44700
H86         H  0.34652772  0.01898251  0.99954607     0.45100
C87         C  0.48405518  0.35496412  0.34312261    -0.14900
C88         C  0.48078932  0.38804146  0.34105280    -0.30100
H89         H  0.48530872  0.34152253  0.37655574     0.14100
H90         H  0.47898681  0.40085156  0.30714196     0.14600
C91         C  0.48991770  0.38658917  0.16890871    -0.14900
C92         C  0.48928906  0.35337874  0.17195271    -0.30100
H93         H  0.49015393  0.39989153  0.20080984     0.14100
H94         H  0.98346301  0.34176529  0.14873791     0.14600
C95         C  0.48486314  0.12496371  0.32241731    -0.14900
C96         C  0.48663209  0.09179989  0.32529689    -0.30100
H97         H  0.48328820  0.13867817  0.35372496     0.14100
H98         H  0.99027474  0.08206109  0.30944486     0.14600
C99         C  0.48631198  0.09177406  0.15207013    -0.14900
C100        C  0.48492478  0.12498767  0.15063687    -0.30100
H101        H  0.48799080  0.07867012  0.18577704     0.14100
H102        H  0.48336769  0.13874580  0.11745592     0.14400
C103        C  0.48562590  0.23035283  0.22903455    -0.14900
C104        C  0.48587935  0.24878254  0.26668259    -0.30100
H105        H  0.98289732  0.24396111  0.20647820     0.14100
H106        H  0.48558375  0.23682368  0.30114733     0.14600
C107        C  0.36212453  0.49441752  0.31079178    -0.14900
C108        C  0.35687570  0.48614141  0.35529121    -0.30100
H109        H  0.33880630  0.97902325  0.35843881     0.14100
H110        H  0.33171659  0.47860700  0.36618673     0.14600
C111        C  0.37774197  0.47037491  0.14793780    -0.14900
C112        C  0.34568560  0.48049688  0.14729714    -0.30100
H113        H  0.39558937  0.97755227  0.19302031     0.14100
H114        H  0.33280616  0.48892186  0.11525407     0.14600
C115        C  0.11414498  0.49314851  0.34849488    -0.14900
C116        C  0.07998492  0.49365112  0.34295852    -0.30100
H117        H  0.12609363  0.49283235  0.38291705     0.14100
H118        H  0.13291412  0.99316714  0.38944794     0.14600
C119        C  0.12160835  0.49330389  0.18071295    -0.14900
C120        C  0.08762154  0.49413558  0.17845420    -0.30100
H121        H  0.13603818  0.49235218  0.14944271     0.14100
H122        H  0.08370935  0.02671701  0.19243069     0.14600
C123        C  0.24498097  0.48790637  0.23954236    -0.14900
C124        C  0.22672282  0.49020063  0.27771061    -0.30100
H125        H  0.22948146  0.97690645  0.20405253     0.14100
H126        H  0.23921464  0.49137984  0.31167215     0.14600
C127        C  0.18346390  0.48551770  0.76353796     0.81700
N128        N  0.17185637  0.48918831  0.71852550    -0.76600
C129        C  0.13877730  0.00384549  0.72903264     0.84200
N130        N  0.12177876  0.00394041  0.76876830    -0.76500
C131        C  0.13794489  0.00276906  0.81071296     0.84200
N132        N  0.16106448  0.48523959  0.79869060    -0.78300
C133        C  0.27898633  0.47854432  0.74424233     0.81700
N134        N  0.29590058  0.47996081  0.78624448    -0.76600
C135        C  0.33040230  0.47918844  0.78811922     0.84200
N136        N  0.34719593  0.47705501  0.74837170    -0.76500
C137        C  0.33075049  0.47572857  0.70683782     0.84200
N138        N  0.29660767  0.47655841  0.70482032    -0.78300
C139        C  0.47868935  0.19398911  0.73125387     0.81700
N140        N  0.47806378  0.17727332  0.77331883    -0.76600
C141        C  0.47598212  0.14369044  0.77597942     0.84200
N142        N  0.47467192  0.12693593  0.73602591    -0.76500
C143        C  0.47541897  0.14328120  0.69374036     0.84200
N144        N  0.47748978  0.17687535  0.69168101    -0.78300
C145        C  0.48547981  0.28573151  0.76182126     0.81700
N146        N  0.48752759  0.30274057  0.80145031    -0.76600
C147        C  0.49071027  0.33626151  0.79950827     0.84200
N148        N  0.49163593  0.35268659  0.75727997    -0.76500
C149        C  0.48941602  0.33604950  0.71725507     0.84200
N150        N  0.48631367  0.30250554  0.71980192    -0.78300
O151        O  0.08024512  0.50195763  0.57567657    -0.73800
O152        O  0.03934875  0.50227828  0.62942690    -0.52700
C153        C  0.07013563  0.50462723  0.61716610     0.79900
O154        O  0.47652280  0.08319865  0.90890449    -0.58400
O155        O  0.47432620  0.04001716  0.86046549    -0.51400
C156        C  0.47469409  0.07095518  0.86811140     0.71900
O157        O  0.47654551  0.08268495  0.56904253    -0.73000
O158        O  0.47251870  0.03903927  0.62187339    -0.53500
C159        C  0.47366288  0.07014384  0.61093373     0.77900
O160        O  0.08806957  0.48981572  0.94405251    -0.58100
O161        O  0.04798077  0.49021673  0.88541543    -0.51200
C162        C  0.07897272  0.48937640  0.90119708     0.74500
Zr163      Zr  0.05080232  0.49562184  0.50086001     2.54700
O164        O  0.09606289  0.04381782  0.51890771    -0.78700
O165        O  0.10379528  0.45182212  0.02582098    -0.92100
Zr166      Zr  0.48017663  0.06037506  0.49041301     2.64700
O167        O  0.02497944  0.10572209  0.50952474    -0.97000
O168        O  0.43812518  0.10296779  0.98985247    -0.79100
O169        O  0.01770455  0.02945914  0.55769983    -0.82500
O170        O  0.01328404  0.03166648  0.96352646    -2.17200
O171        O  0.49457370  0.39635226  0.92483994    -0.65900
O172        O  0.49547959  0.44002418  0.87174557    -0.50400
C173        C  0.49563601  0.40895817  0.88275001     0.72900
O174        O  0.39066235  0.47894228  0.58528301    -0.58800
O175        O  0.43703591  0.48322378  0.63369613    -0.50700
C176        C  0.40514293  0.47961283  0.62573397     0.74700
O177        O  0.39409719  0.48262229  0.91329240    -0.70200
O178        O  0.43926744  0.48656006  0.86595415    -0.48800
C179        C  0.40728188  0.48416741  0.87318623     0.76100
O180        O  0.48686053  0.39631952  0.58446072    -0.65500
O181        O  0.49208966  0.43982369  0.63210261    -0.52700
C182        C  0.49054162  0.40878405  0.62495452     0.74500
Zr183      Zr  0.48354817  0.41880141  0.50276138     2.77500
O184        O  0.44245050  0.37312832  0.50608817    -0.96200
O185        O  0.02576678  0.38159945  0.50850954    -0.77100
Zr186      Zr  0.40856277  0.48400104  0.50553529     2.70100
O187        O  0.36835478  0.43765318  0.50980164    -0.78300
O188        O  0.37174372  0.02883114  0.48167787    -0.97400
Zr189      Zr  0.48490176  0.48951916  0.58461988     2.21500
Zr190      Zr  0.49126146  0.48957549  0.91365153     2.11100
O191        O  0.45567257  0.45079258  0.95430929    -2.46100
O192        O  0.44847553  0.45087281  0.54787931    -0.78100
O193        O  0.02636353  0.45651320  0.96929588    -0.70300
O194        O  0.44295860  0.02306195  0.53158969    -2.31300
O195        O  0.01982869  0.45807304  0.54937465    -2.27500
O196        O  0.44265978  0.02439587  0.95094195    -0.72100
H197        H  0.02496292  0.04614910  0.94157833     0.79900
H198        H  0.42727275  0.03498303  0.54923697     0.81000
H199        H  0.44347368  0.43670862  0.93315715     0.83300
H200        H  0.03511500  0.44556951  0.56986467     0.80900
H201        H  0.41704593  0.09080487  0.50336379     0.43900
H202        H  0.37223748  0.04590531  0.98053690     0.42900
H203        H  0.38235001  0.41827441  0.51889807     0.42500
H204        H  0.43544720  0.37813328  0.97758558     0.40500
H205        H  0.05332440  0.39143694  0.00505349     0.43600
H206        H  0.09293810  0.44292138  0.53577304     0.38400
H207        H  0.08252601  0.06251566  0.52839980     0.44500
H208        H  0.03030265  0.10638158  0.97787951     0.40900
H209        H  0.45589517  0.35318178  0.50177552     0.45800
H210        H  0.11499422  0.46485759  0.50179683     0.44600
H211        H  0.01207147  0.12642798  0.50581990     0.44700
H212        H  0.35041005  0.01797741  0.47097085     0.45100
C213        C  0.49214685  0.35461471  0.84320943    -0.14900
C214        C  0.49667766  0.38767446  0.84230395    -0.30100
H215        H  0.48865438  0.34097987  0.87605906     0.14100
H216        H  0.49995495  0.40072712  0.80892922     0.14600
C217        C  0.49291603  0.38742559  0.66803515    -0.14900
C218        C  0.48923389  0.35428421  0.67114304    -0.30100
H219        H  0.49687478  0.40051457  0.69988853     0.14100
H220        H  0.98462103  0.34262553  0.64700970     0.14600
C221        C  0.47590997  0.12556366  0.82214230    -0.14900
C222        C  0.47313431  0.09238427  0.82511784    -0.30100
H223        H  0.47871293  0.13939370  0.85345834     0.14100
H224        H  0.96590816  0.08149205  0.80917757     0.14600
C225        C  0.47182213  0.09155372  0.65122104    -0.14900
C226        C  0.47504351  0.12476604  0.65014445    -0.30100
H227        H  0.46866921  0.07851324  0.68462618     0.14100
H228        H  0.47815878  0.13844352  0.61724567     0.14400
C229        C  0.48099385  0.23056618  0.72777120    -0.14900
C230        C  0.48246038  0.24919033  0.76525123    -0.30100
H231        H  0.98190379  0.24297576  0.70387234     0.14100
H232        H  0.48176547  0.23734180  0.79976402     0.14600
C233        C  0.35042888  0.48121185  0.83228200    -0.14900
C234        C  0.38465444  0.48282196  0.83172779    -0.30100
H235        H  0.39035460  0.98277290  0.79206464     0.14100
H236        H  0.39728578  0.48307138  0.79885280     0.14600
C237        C  0.38416637  0.47654319  0.66662393    -0.14900
C238        C  0.35017139  0.47531275  0.66425823    -0.30100
H239        H  0.38101979  0.95271462  0.66750987     0.14100
H240        H  0.33659593  0.47545273  0.63092863     0.14600
C241        C  0.10092882  0.48810457  0.82297711    -0.14900
C242        C  0.10687935  0.48802270  0.86862718    -0.30100
H243        H  0.07494318  0.48897338  0.80957731     0.14100
H244        H  0.07081477  0.00099514  0.81501940     0.14600
C245        C  0.12452014  0.49682790  0.66090323    -0.14900
C246        C  0.09433695  0.51117359  0.65494890    -0.30100
H247        H  0.13599729  0.48431657  0.63305888     0.14100
H248        H  0.07196957  0.00265490  0.71587577     0.14600
C249        C  0.24186156  0.48034057  0.73900742    -0.14900
C250        C  0.22030118  0.48232114  0.77382673    -0.30100
H251        H  0.23222526  0.00301121  0.70403988     0.14100
H252        H  0.22967417  0.48187899  0.80962442     0.14600
C253        C  0.18354816  0.98340410  0.26785548     0.81700
N254        N  0.17114058  0.98886093  0.22364716    -0.76600
C255        C  0.13936339  0.49311650  0.22653182     0.84200
N256        N  0.12110441  0.49361032  0.26513714    -0.76500
C257        C  0.13594081  0.49290709  0.30787373     0.84200
N258        N  0.16188433  0.98284462  0.30412392    -0.78300
C259        C  0.27812391  0.97582163  0.24124330     0.81700
N260        N  0.29609889  0.97704237  0.28233764    -0.76600
C261        C  0.33052205  0.97721665  0.28240094     0.84200
N262        N  0.34638226  0.97616088  0.24184513    -0.76500
C263        C  0.32908611  0.97521505  0.20093866     0.84200
N264        N  0.29478831  0.97514086  0.20061167    -0.78300
C265        C  0.47725525  0.69298428  0.23306837     0.81700
N266        N  0.47602392  0.67678989  0.27559352    -0.76600
C267        C  0.47372067  0.64314243  0.27901893     0.84200
N268        N  0.47300353  0.62597496  0.23950340    -0.76500
C269        C  0.47440275  0.64183574  0.19698394     0.84200
N270        N  0.47648321  0.67535450  0.19406908    -0.78300
C271        C  0.48378347  0.78548889  0.25977498     0.81700
N272        N  0.48541187  0.80297332  0.29889656    -0.76600
C273        C  0.48788820  0.83647281  0.29625351     0.84200
N274        N  0.48857443  0.85251735  0.25373460    -0.76500
C275        C  0.48680729  0.83545060  0.21404041     0.84200
N276        N  0.48436831  0.80180915  0.21732178    -0.78300
O277        O  0.08091757  0.00806185  0.08332511    -0.73800
O278        O  0.03977871  0.00400743  0.13696729    -0.52700
C279        C  0.07036603  0.00881491  0.12488723     0.79900
O280        O  0.47142852  0.58272326  0.41251142    -0.58400
O281        O  0.46867712  0.53950039  0.36417306    -0.51400
C282        C  0.46934212  0.57049575  0.37169481     0.71900
O283        O  0.47842254  0.58107743  0.07426268    -0.73000
O284        O  0.47774789  0.53743171  0.12741148    -0.53500
C285        C  0.47684117  0.56842077  0.11624711     0.77900
O286        O  0.08703690  0.99321721  0.45072391    -0.58100
O287        O  0.04777639  0.99154654  0.39120387    -0.51200
C288        C  0.07864783  0.99170106  0.40767482     0.74500
Zr289      Zr  0.05367082  0.99989761  0.00778594     2.54700
O290        O  0.10055139  0.53858316  0.01611771    -0.78700
O291        O  0.10233984  0.95685328  0.53494253    -0.92100
Zr292      Zr  0.48247148  0.55969636  0.99527609     2.64700
O293        O  0.03332056  0.60431489  0.00208193    -0.97000
O294        O  0.42887662  0.59918652  0.49516097    -0.79100
O295        O  0.02297703  0.52838598  0.05230143    -0.82500
O296        O  0.01225494  0.52983580  0.45663738    -2.17200
O297        O  0.49005454  0.89679772  0.42078517    -0.65900
O298        O  0.49379406  0.94035731  0.36782330    -0.50400
C299        C  0.49249116  0.90934109  0.37881740     0.72900
O300        O  0.38985543  0.98135128  0.07806601    -0.58800
O301        O  0.43559249  0.98454033  0.12781894    -0.50700
C302        C  0.40369414  0.98144325  0.11896564     0.74700
O303        O  0.39393862  0.98394800  0.40458747    -0.70200
O304        O  0.43973911  0.98730055  0.35842109    -0.48800
C305        C  0.40771250  0.98501312  0.36493651     0.76100
O306        O  0.48521138  0.89575028  0.08020821    -0.65500
O307        O  0.48971739  0.93910520  0.12818508    -0.52700
C308        C  0.48828465  0.90805856  0.12087299     0.74500
Zr309      Zr  0.48205279  0.91895065  0.99876231     2.77500
O310        O  0.43673784  0.87726791  0.00086246    -0.96200
O311        O  0.03862649  0.88622718  0.01818800    -0.77100
Zr312      Zr  0.41024164  0.98745212  0.99934039     2.70100
O313        O  0.36749810  0.94330705  0.99672602    -0.78300
O314        O  0.37118895  0.52298514  0.98939339    -0.97400
Zr315      Zr  0.48508913  0.98940658  0.08102028     2.21500
Zr316      Zr  0.48976715  0.98986233  0.40937095     2.11100
O317        O  0.45258230  0.95188022  0.44869569    -2.46100
O318        O  0.44759683  0.95227489  0.04306072    -0.78100
O319        O  0.02652057  0.95843835  0.47490247    -0.70300
O320        O  0.44714821  0.52147721  0.03766080    -2.31300
O321        O  0.02481567  0.96039445  0.05608713    -2.27500
O322        O  0.43799517  0.52273595  0.45610121    -0.72100
H323        H  0.02472902  0.54342226  0.43448586     0.79900
H324        H  0.43167650  0.53313817  0.05610347     0.81000
H325        H  0.44055852  0.93796648  0.42718233     0.83300
H326        H  0.04076999  0.94902984  0.07694225     0.80900
H327        H  0.41933985  0.58867055  0.01301174     0.43900
H328        H  0.36691701  0.53944144  0.48226373     0.42900
H329        H  0.37873327  0.92379969  0.01178714     0.42500
H330        H  0.43092449  0.87861469  0.47230791     0.40500
H331        H  0.05688874  0.89518678  0.52428697     0.43600
H332        H  0.11872812  0.97184794  0.00114322     0.38400
H333        H  0.08766091  0.55763521  0.02589591     0.44500
H334        H  0.03481174  0.60322169  0.46950900     0.40900
H335        H  0.44801699  0.85629757  0.99504572     0.45800
H336        H  0.09246892  0.94344654  0.99037347     0.44600
H337        H  0.02162763  0.62538313  0.99454584     0.44700
H338        H  0.35197303  0.51180936  0.97327413     0.45100
C339        C  0.48901496  0.85505547  0.33964352    -0.14900
C340        C  0.49332136  0.88807802  0.33843476    -0.30100
H341        H  0.48575753  0.84153075  0.37263256     0.14100
H342        H  0.49655342  0.90103103  0.30497459     0.14600
C343        C  0.49023328  0.88660655  0.16404548    -0.14900
C344        C  0.48664786  0.85340522  0.16755611    -0.30100
H345        H  0.49397559  0.89981101  0.19582955     0.14100
H346        H  0.99140575  0.84375994  0.15224642     0.14600
C347        C  0.47274817  0.62517681  0.32540397    -0.14900
C348        C  0.46804820  0.59206848  0.32863566    -0.30100
H349        H  0.47654138  0.63897237  0.35660910     0.14100
H350        H  0.96818855  0.58249063  0.30296177     0.14600
C351        C  0.47402871  0.58969459  0.15620458    -0.14900
C352        C  0.47483950  0.62291709  0.15407886    -0.30100
H353        H  0.47220822  0.57676722  0.18992976     0.14100
H354        H  0.47683249  0.63634670  0.12079170     0.14400
C355        C  0.47960325  0.72953252  0.22809171    -0.14900
C356        C  0.48130831  0.74894965  0.26460809    -0.30100
H357        H  0.99002541  0.74487318  0.20379489     0.14100
H358        H  0.48097156  0.73775648  0.29953561     0.14600
C359        C  0.35130335  0.97974696  0.32544783    -0.14900
C360        C  0.38532833  0.98308333  0.32361139    -0.30100
H361        H  0.38757280  0.50158139  0.30062955     0.14100
H362        H  0.39759503  0.98410143  0.29042178     0.14600
C363        C  0.38219918  0.97794364  0.15953330    -0.14900
C364        C  0.34808554  0.97623759  0.15755941    -0.30100
H365        H  0.38962963  0.46174896  0.18067686     0.14100
H366        H  0.33430953  0.97673378  0.12438689     0.14600
C367        C  0.10179298  0.98595294  0.33046951    -0.14900
C368        C  0.10719056  0.99018103  0.37569337    -0.30100
H369        H  0.07584274  0.98352844  0.31728908     0.14100
H370        H  0.06822410  0.49377860  0.30842208     0.14600
C371        C  0.12381844  0.99984328  0.16813612    -0.14900
C372        C  0.09417428  0.01508899  0.16295962    -0.30100
H373        H  0.13482326  0.98775069  0.13953142     0.14100
H374        H  0.07366698  0.49490939  0.21018984     0.14600
C375        C  0.24078625  0.97690894  0.23885105    -0.14900
C376        C  0.22060243  0.97904036  0.27548820    -0.30100
H377        H  0.23191489  0.48635656  0.20599744     0.14100
H378        H  0.23133477  0.97854239  0.31060369     0.14600
C379        C  0.19012858  0.00154829  0.77340327     0.81700
N380        N  0.17309074  0.00262317  0.73133308    -0.76600
C381        C  0.13845156  0.49295757  0.70874972     0.84200
N382        N  0.11668134  0.49214188  0.74378537    -0.76500
C383        C  0.12735303  0.48838598  0.78830567     0.84200
N384        N  0.17233275  0.00148033  0.81314923    -0.78300
C385        C  0.28241464  0.99437181  0.73469521     0.81700
N386        N  0.30442058  0.99319070  0.77258613    -0.76600
C387        C  0.33800304  0.98765147  0.76618490     0.84200
N388        N  0.34856002  0.98300391  0.72315167    -0.76500
C389        C  0.32709310  0.98411736  0.68585790     0.84200
N390        N  0.29417803  0.99037024  0.69158833    -0.78300
C391        C  0.48105947  0.69308174  0.73446702     0.81700
N392        N  0.48222508  0.67681798  0.77699106    -0.76600
C393        C  0.48225804  0.64316138  0.78034157     0.84200
N394        N  0.48118822  0.62608891  0.74071406    -0.76500
C395        C  0.48004463  0.64210890  0.69819030     0.84200
N396        N  0.47991812  0.67560007  0.69539509    -0.78300
C397        C  0.48150529  0.78532538  0.76088445     0.81700
N398        N  0.48093774  0.80291667  0.79979354    -0.76600
C399        C  0.48087168  0.83641938  0.79671469     0.84200
N400        N  0.48148893  0.85230094  0.75413757    -0.76500
C401        C  0.48210503  0.83513556  0.71470347     0.84200
N402        N  0.48210303  0.80148727  0.71830658    -0.78300
O403        O  0.07746061  0.00091951  0.60163397    -0.73800
O404        O  0.03162340  0.99619938  0.64746692    -0.52700
C405        C  0.06357437  0.99978180  0.64129797     0.79900
O406        O  0.48260418  0.58247916  0.91356697    -0.58400
O407        O  0.49018059  0.53978940  0.86603445    -0.51400
C408        C  0.48608180  0.57048868  0.87313154     0.71900
O409        O  0.47920477  0.58194702  0.57423283    -0.73000
O410        O  0.48280927  0.53844520  0.62739481    -0.53500
C411        C  0.48132374  0.56937586  0.61635936     0.77900
O412        O  0.07451037  0.00036985  0.92977632    -0.58100
O413        O  0.02896033  0.99706062  0.87949303    -0.51200
C414        C  0.06097185  0.99935202  0.88883605     0.74500
Zr415      Zr  0.05708703  0.99644518  0.52170328     2.54700
O416        O  0.09309309  0.53970741  0.49063568    -0.78700
O417        O  0.09879436  0.95977942  0.01384178    -0.92100
Zr418      Zr  0.47512890  0.56044445  0.49472982     2.64700
O419        O  0.02114913  0.60821041  0.49638246    -0.97000
O420        O  0.43474926  0.59680064  0.98844590    -0.79100
O421        O  0.01792956  0.53048369  0.54427016    -0.82500
O422        O  0.02653636  0.52782343  0.96437915    -2.17200
O423        O  0.48124675  0.89753761  0.91935567    -0.65900
O424        O  0.47557987  0.94061279  0.86575974    -0.50400
C425        C  0.47833676  0.90981478  0.87716477     0.72900
O426        O  0.38447352  0.97512658  0.55787820    -0.58800
O427        O  0.42474493  0.97912510  0.61580141    -0.50700
C428        C  0.39440059  0.97405466  0.60075501     0.74700
O429        O  0.38084095  0.99106420  0.92490702    -0.70200
O430        O  0.42016304  0.99033102  0.86889072    -0.48800
C431        C  0.38925864  0.99117593  0.88247469     0.76100
O432        O  0.48427426  0.89546986  0.58106776    -0.65500
O433        O  0.47999502  0.93871431  0.62860861    -0.52700
C434        C  0.48192543  0.90773832  0.62153544     0.74500
Zr435      Zr  0.48750798  0.91872742  0.49987905     2.77500
O436        O  0.44657320  0.87295401  0.49878540    -0.96200
O437        O  0.03607550  0.88118820  0.52287712    -0.77100
Zr438      Zr  0.41305900  0.98499117  0.48479076     2.70100
O439        O  0.36958929  0.94225989  0.47431233    -0.78300
O440        O  0.36501431  0.52517220  0.51092673    -0.97400
Zr441      Zr  0.47819503  0.98904013  0.58095953     2.21500
Zr442      Zr  0.47679033  0.99006869  0.90784817     2.11100
O443        O  0.44333482  0.95308198  0.95472378    -2.46100
O444        O  0.44696197  0.95099414  0.53559176    -0.78100
O445        O  0.01953784  0.96089711  0.96743228    -0.70300
O446        O  0.44398841  0.52272503  0.54377232    -2.31300
O447        O  0.02213463  0.95769148  0.56256754    -2.27500
O448        O  0.45082890  0.52160786  0.94979778    -0.72100
H449        H  0.04120366  0.54124054  0.94463055     0.79900
H450        H  0.43074495  0.53471705  0.56475214     0.81000
H451        H  0.42859576  0.93959155  0.93559372     0.83300
H452        H  0.03560790  0.94558150  0.58580521     0.80900
H453        H  0.41192622  0.59074859  0.47240380     0.43900
H454        H  0.37878247  0.54061762  0.96692430     0.42900
H455        H  0.38172627  0.92119979  0.47959987     0.42500
H456        H  0.42274314  0.88204295  0.97240883     0.40500
H457        H  0.05132983  0.89146566  0.04713628     0.43600
H458        H  0.09620155  0.94355563  0.56320311     0.38400
H459        H  0.08345131  0.55886141  0.50539808     0.44500
H460        H  0.04652009  0.60056054  0.97432216     0.40900
H461        H  0.45943989  0.85401189  0.48852439     0.45800
H462        H  0.12225425  0.97035441  0.54474658     0.44600
H463        H  0.00844863  0.62817495  0.48598205     0.44700
H464        H  0.34342690  0.51271184  0.50661206     0.45100
C465        C  0.48030441  0.85527509  0.83959316    -0.14900
C466        C  0.47834251  0.88835883  0.83715255    -0.30100
H467        H  0.48150488  0.84195168  0.87312874     0.14100
H468        H  0.47677980  0.90109314  0.80316941     0.14600
C469        C  0.48148379  0.88632661  0.66473848    -0.14900
C470        C  0.48274410  0.85304285  0.66824987    -0.30100
H471        H  0.47990758  0.89960451  0.69647222     0.14100
H472        H  0.99333778  0.84261189  0.65396820     0.14600
C473        C  0.48333806  0.62516176  0.82673458    -0.14900
C474        C  0.48507973  0.59191826  0.82996986    -0.30100
H475        H  0.48282451  0.63912461  0.85794385     0.14100
H476        H  0.98983650  0.58082512  0.80371970     0.14600
C477        C  0.48216870  0.59053493  0.65675939    -0.14900
C478        C  0.47920712  0.62350623  0.65500152    -0.30100
H479        H  0.48518798  0.57763625  0.69048616     0.14100
H480        H  0.47635809  0.63698108  0.62173014     0.14400
C481        C  0.48109066  0.72954022  0.72949760    -0.14900
C482        C  0.48156402  0.74886286  0.76600347    -0.30100
H483        H  0.98951369  0.74532026  0.70710802     0.14100
H484        H  0.48186364  0.73768321  0.80096466     0.14600
C485        C  0.36491622  0.98731305  0.80312078    -0.14900
C486        C  0.36054656  0.99222749  0.84789521    -0.30100
H487        H  0.33737627  0.48138631  0.86478514     0.14100
H488        H  0.33525607  0.99627282  0.85980402     0.14600
C489        C  0.37045715  0.96598016  0.63693239    -0.14900
C490        C  0.34080111  0.98094625  0.63956848    -0.30100
H491        H  0.39749299  0.47662667  0.70014253     0.14100
H492        H  0.32965187  0.99466680  0.60986563     0.14600
C493        C  0.11753312  0.00189510  0.85281276    -0.14900
C494        C  0.08336397  0.00095511  0.84906042    -0.30100
H495        H  0.13038870  0.00152092  0.88664561     0.14100
H496        H  0.13275415  0.48752563  0.88245133     0.14600
C497        C  0.11940202  0.00348943  0.68422229    -0.14900
C498        C  0.08521786  0.00247963  0.68350310    -0.30100
H499        H  0.13300995  0.00296916  0.65219491     0.14100
H500        H  0.08383426  0.52355050  0.68376257     0.14600
C501        C  0.24563564  0.99979371  0.73733934    -0.14900
C502        C  0.22769930  0.99907800  0.77612399    -0.30100
H503        H  0.23188544  0.48035940  0.70348967     0.14100
H504        H  0.24043673  0.99565535  0.80984188     0.14600
C505        C  0.68829242  0.50064325  0.26905826     0.81700
N506        N  0.67314264  0.50089812  0.22567023    -0.76600
C507        C  0.63847658  0.98588306  0.20425407     0.84200
N508        N  0.61611405  0.98368753  0.23863019    -0.76500
C509        C  0.62616318  0.98161946  0.28349609     0.84200
N510        N  0.66876155  0.50009130  0.30711690    -0.78300
C511        C  0.78274715  0.49790368  0.23989608     0.81700
N512        N  0.80271973  0.50025407  0.27962882    -0.76600
C513        C  0.83719401  0.49920426  0.27639655     0.84200
N514        N  0.85055805  0.49545554  0.23475878    -0.76500
C515        C  0.83103692  0.49235815  0.19599652     0.84200
N516        N  0.79721265  0.49412260  0.19847380    -0.78300
C517        C  0.98201261  0.19626068  0.24630372     0.81700
N518        N  0.98208696  0.17986289  0.28878758    -0.76600
C519        C  0.98199694  0.14616459  0.29196007     0.84200
N520        N  0.98154139  0.12926030  0.25225400    -0.76500
C521        C  0.98125889  0.14535597  0.20981241     0.84200
N522        N  0.98159652  0.17886851  0.20713702    -0.78300
C523        C  0.98183587  0.28857892  0.27256763     0.81700
N524        N  0.98062541  0.30621734  0.31133875    -0.76600
C525        C  0.97981871  0.33968229  0.30808339     0.84200
N526        N  0.98039404  0.35552811  0.26546844    -0.76500
C527        C  0.98176457  0.33828925  0.22617806     0.84200
N528        N  0.98244840  0.30467436  0.22996235    -0.78300
O529        O  0.57978917  0.49830889  0.08972976    -0.73800
O530        O  0.53395928  0.49428954  0.13552558    -0.52700
C531        C  0.56587990  0.49738828  0.12940832     0.79900
O532        O  0.98312605  0.08477177  0.42465666    -0.58400
O533        O  0.99117525  0.04220049  0.37702228    -0.51400
C534        C  0.98710253  0.07294611  0.38422552     0.71900
O535        O  0.97942662  0.08469875  0.08643672    -0.73000
O536        O  0.98239456  0.04125335  0.13976265    -0.53500
C537        C  0.98078261  0.07218050  0.12859557     0.77900
O538        O  0.56909071  0.49560286  0.41601965    -0.58100
O539        O  0.52344283  0.49394018  0.36572198    -0.51200
C540        C  0.55549866  0.49549909  0.37514865     0.74500
Zr541      Zr  0.55842935  0.49533745  0.00967004     2.54700
O542        O  0.59419007  0.03705255  0.98688535    -0.78700
O543        O  0.59389454  0.45321170  0.49496196    -0.92100
Zr544      Zr  0.97650306  0.06305478  0.00710159     2.64700
O545        O  0.52748915  0.10066864  0.98665385    -0.97000
O546        O  0.93571670  0.10047721  0.49970838    -0.79100
O547        O  0.51897006  0.02639761  0.03542696    -0.82500
O548        O  0.52101649  0.02821329  0.45471613    -2.17200
O549        O  0.97970592  0.40066207  0.43033260    -0.65900
O550        O  0.97165745  0.44350069  0.37689824    -0.50400
C551        C  0.97548929  0.41282927  0.38826862     0.72900
O552        O  0.89109348  0.48319006  0.07346294    -0.58800
O553        O  0.93320358  0.48435277  0.12925279    -0.50700
C554        C  0.90223276  0.48171065  0.11585204     0.74700
O555        O  0.87803185  0.49260803  0.43750528    -0.70200
O556        O  0.91676496  0.49412353  0.38062943    -0.48800
C557        C  0.88598516  0.49396185  0.39476230     0.76100
O558        O  0.98494300  0.39771579  0.09203643    -0.65500
O559        O  0.98462922  0.44140078  0.13939911    -0.52700
C560        C  0.98420708  0.41033515  0.13249905     0.74500
Zr561      Zr  0.98859304  0.42018282  0.01037221     2.77500
O562        O  0.94515585  0.37664054  0.00778383    -0.96200
O563        O  0.54095640  0.38234471  0.01029950    -0.77100
Zr564      Zr  0.91718761  0.48986650  0.99806854     2.70100
O565        O  0.87208484  0.44832075  0.99132206    -0.78300
O566        O  0.86606322  0.02203298  0.02663326    -0.97400
Zr567      Zr  0.98541952  0.49115812  0.09118515     2.21500
Zr568      Zr  0.97367595  0.49328581  0.41825216     2.11100
O569        O  0.94160062  0.45569928  0.46600465    -2.46100
O570        O  0.95079934  0.45455149  0.04761556    -0.78100
O571        O  0.51405586  0.45701930  0.45407712    -0.70300
O572        O  0.94600917  0.02444404  0.05561270    -2.31300
O573        O  0.52441663  0.45576375  0.05030402    -2.27500
O574        O  0.95065567  0.02415367  0.45956856    -0.72100
H575        H  0.53556282  0.04223738  0.43559665     0.79900
H576        H  0.93205010  0.03588555  0.07633445     0.81000
H577        H  0.92665117  0.44202943  0.44741348     0.83300
H578        H  0.53823383  0.44366124  0.07318589     0.80900
H579        H  0.91552383  0.09122578  0.03579812     0.43900
H580        H  0.88118023  0.04542634  0.47234180     0.42900
H581        H  0.88273579  0.42733215  0.00227204     0.42500
H582        H  0.92301938  0.38317079  0.48490013     0.40500
H583        H  0.55000668  0.39521310  0.49185435     0.43600
H584        H  0.60217008  0.44540584  0.04937268     0.38400
H585        H  0.58471930  0.05469471  0.00498868     0.44500
H586        H  0.53785461  0.10057951  0.46699856     0.40900
H587        H  0.95765117  0.35634344  0.00205901     0.45800
H588        H  0.62537876  0.47096656  0.02221157     0.44600
H589        H  0.51650465  0.12218208  0.97979242     0.44700
H590        H  0.84558395  0.00962768  0.01619778     0.45100
C591        C  0.97876996  0.35850042  0.35086086    -0.14900
C592        C  0.97529204  0.39139672  0.34832022    -0.30100
H593        H  0.98105927  0.34531383  0.38442066     0.14100
H594        H  0.97255586  0.40398479  0.31434287     0.14600
C595        C  0.98288659  0.38928698  0.17591546    -0.14900
C596        C  0.98269925  0.35600083  0.17966049    -0.30100
H597        H  0.98223191  0.40281929  0.20755489     0.14100
H598        H  0.48902515  0.33937706  0.14071910     0.14600
C599        C  0.98258545  0.12781739  0.33818192    -0.14900
C600        C  0.98687648  0.09477018  0.34129258    -0.30100
H601        H  0.97966633  0.14136617  0.36937161     0.14100
H602        H  0.48863992  0.07877980  0.29340253     0.14600
C603        C  0.98059355  0.09347973  0.16878709    -0.14900
C604        C  0.98073107  0.12667602  0.16669097    -0.30100
H605        H  0.98083867  0.08052207  0.20264430     0.14100
H606        H  0.98066275  0.14020089  0.13329747     0.14400
C607        C  0.98248206  0.23275940  0.24140600    -0.14900
C608        C  0.98209916  0.25211642  0.27782522    -0.30100
H609        H  0.48577280  0.24235447  0.19458980     0.14100
H610        H  0.98155888  0.24096036  0.31276430     0.14600
C611        C  0.86229409  0.50237069  0.31523742    -0.14900
C612        C  0.85718805  0.49491806  0.36008996    -0.30100
H613        H  0.83681901  0.98374313  0.37245417     0.14100
H614        H  0.83182597  0.48868845  0.37142391     0.14600
C615        C  0.87891840  0.47692047  0.15347096    -0.14900
C616        C  0.84730782  0.48801669  0.15182522    -0.30100
H617        H  0.89925531  0.97552720  0.21058704     0.14100
H618        H  0.83513220  0.49669388  0.11938924     0.14600
C619        C  0.61247496  0.49864657  0.34203177    -0.14900
C620        C  0.57842360  0.49740834  0.33610739    -0.30100
H621        H  0.62425006  0.49833540  0.37656807     0.14100
H622        H  0.63058955  0.99034869  0.37596349     0.14600
C623        C  0.62116531  0.50030819  0.17451756    -0.14900
C624        C  0.58700645  0.49983830  0.17201279    -0.30100
H625        H  0.63572744  0.49954997  0.14335414     0.14100
H626        H  0.58172997  0.01243052  0.17923736     0.14600
C627        C  0.74546555  0.49954117  0.23852736    -0.14900
C628        C  0.72573912  0.50035365  0.27528373    -0.30100
H629        H  0.73440137  0.98097968  0.20519014     0.14100
H630        H  0.73702223  0.50021630  0.31009327     0.14600
C631        C  0.68284087  0.48671418  0.76003144     0.81700
N632        N  0.67185439  0.48930342  0.71449746    -0.76600
C633        C  0.63380588  0.00124454  0.70969903     0.84200
N634        N  0.61928919  0.99938786  0.75127916    -0.76500
C635        C  0.63784139  0.99666794  0.79131356     0.84200
N636        N  0.65986120  0.48622040  0.79430369    -0.78300
C637        C  0.77946644  0.48238768  0.74687359     0.81700
N638        N  0.79572563  0.48444129  0.78946283    -0.76600
C639        C  0.83039659  0.48478240  0.79226867     0.84200
N640        N  0.84772904  0.48305839  0.75292711    -0.76500
C641        C  0.83181728  0.48105817  0.71110876     0.84200
N642        N  0.79777798  0.48081912  0.70817575    -0.78300
C643        C  0.97895093  0.19542634  0.74422988     0.81700
N644        N  0.97734194  0.17935568  0.78682418    -0.76600
C645        C  0.97483889  0.14570118  0.79045582     0.84200
N646        N  0.97426472  0.12840866  0.75098920    -0.76500
C647        C  0.97603736  0.14421860  0.70839630     0.84200
N648        N  0.97835318  0.17769992  0.70538638    -0.78300
C649        C  0.98663828  0.28798315  0.77012237     0.81700
N650        N  0.98872984  0.30533321  0.80928412    -0.76600
C651        C  0.99113295  0.33878547  0.80676129     0.84200
N652        N  0.99141653  0.35499353  0.76433536    -0.76500
C653        C  0.98928058  0.33812633  0.72452761     0.84200
N654        N  0.98677489  0.30443060  0.72765901    -0.78300
O655        O  0.57998666  0.50005006  0.56910573    -0.73800
O656        O  0.53886914  0.49939506  0.62259440    -0.52700
C657        C  0.56976448  0.50204299  0.61067006     0.79900
O658        O  0.97267998  0.08567255  0.92503552    -0.58400
O659        O  0.97261626  0.04236079  0.87690559    -0.51400
C660        C  0.97164406  0.07336133  0.88423716     0.71900
O661        O  0.97824038  0.08349747  0.58504889    -0.73000
O662        O  0.97612340  0.03997731  0.63831267    -0.53500
C663        C  0.97618111  0.07096041  0.62705868     0.77900
O664        O  0.58679367  0.49406799  0.93747815    -0.58100
O665        O  0.54684214  0.49102357  0.87895288    -0.51200
C666        C  0.57776818  0.49225237  0.89473502     0.74500
Zr667      Zr  0.55008951  0.49464757  0.49433109     2.54700
O668        O  0.59233182  0.04291315  0.50637040    -0.78700
O669        O  0.60488421  0.45673906  0.01852756    -0.92100
Zr670      Zr  0.98211253  0.06174678  0.50619287     2.64700
O671        O  0.52295708  0.10448939  0.49301480    -0.97000
O672        O  0.92745230  0.09837210  0.00730161    -0.79100
O673        O  0.51472076  0.02766388  0.54264113    -0.82500
O674        O  0.51493930  0.02636414  0.94714191    -2.17200
O675        O  0.99179822  0.39887430  0.93096712    -0.65900
O676        O  0.99400622  0.44234342  0.87760619    -0.50400
C677        C  0.99350748  0.41141048  0.88888500     0.72900
O678        O  0.89194720  0.48390241  0.59108056    -0.58800
O679        O  0.93807409  0.48827106  0.63997602    -0.50700
C680        C  0.90630908  0.48469254  0.63161097     0.74700
O681        O  0.89431971  0.49003879  0.91881222    -0.70200
O682        O  0.93960037  0.49023835  0.87175847    -0.48800
C683        C  0.90746317  0.48989937  0.87871693     0.76100
O684        O  0.98627548  0.39901522  0.59095874    -0.65500
O685        O  0.99108383  0.44251167  0.63867439    -0.52700
C686        C  0.98974537  0.41136959  0.63156159     0.74500
Zr687      Zr  0.98132876  0.42217625  0.50955194     2.77500
O688        O  0.93629114  0.38024203  0.51439212    -0.96200
O689        O  0.53129312  0.38171726  0.50536459    -0.77100
Zr690      Zr  0.90917954  0.49010411  0.51118945     2.70100
O691        O  0.86619434  0.44611497  0.51249217    -0.78300
O692        O  0.87239475  0.02885249  0.49549707    -0.97400
Zr693      Zr  0.98564236  0.49295511  0.59113514     2.21500
Zr694      Zr  0.99203800  0.49143154  0.91972573     2.11100
O695        O  0.95415465  0.45483662  0.96042784    -2.46100
O696        O  0.94763154  0.45570620  0.55432127    -0.78100
O697        O  0.52778253  0.45705812  0.96308360    -0.70300
O698        O  0.94575604  0.02412934  0.54791686    -2.31300
O699        O  0.52044114  0.45599940  0.54271417    -2.27500
O700        O  0.94136212  0.02423808  0.96775643    -0.72100
H701        H  0.52764299  0.03996628  0.92526625     0.79900
H702        H  0.93024175  0.03607715  0.56587911     0.81000
H703        H  0.94113149  0.44139229  0.93928336     0.83300
H704        H  0.53613647  0.44397599  0.56318488     0.80900
H705        H  0.91843747  0.09082154  0.52069604     0.43900
H706        H  0.86910772  0.03996065  0.00249429     0.42900
H707        H  0.87755100  0.42700466  0.52845597     0.42500
H708        H  0.93207763  0.38145265  0.97852331     0.40500
H709        H  0.56023584  0.39678749  0.00063685     0.43600
H710        H  0.59280773  0.44156996  0.52582625     0.38400
H711        H  0.58084692  0.05922584  0.52465280     0.44500
H712        H  0.53905648  0.09609135  0.95779373     0.40900
H713        H  0.94791679  0.35899066  0.51181190     0.45800
H714        H  0.61540131  0.46617118  0.49622515     0.44600
H715        H  0.51064114  0.12478840  0.48307191     0.44700
H716        H  0.85267081  0.01836745  0.47958412     0.45100
C717        C  0.99211877  0.35717005  0.85015499    -0.14900
C718        C  0.99471449  0.39025426  0.84865909    -0.30100
H719        H  0.98985310  0.34352098  0.88324198     0.14100
H720        H  0.99694050  0.40331804  0.81508337     0.14600
C721        C  0.99223958  0.38973727  0.67474627    -0.14900
C722        C  0.98868225  0.35643655  0.67815521    -0.30100
H723        H  0.99629386  0.40283336  0.70656829     0.14100
H724        H  0.48523747  0.34054786  0.63990706     0.14600
C725        C  0.97387294  0.12793559  0.83711171    -0.14900
C726        C  0.96957731  0.09477340  0.84091251    -0.30100
H727        H  0.97768768  0.14195586  0.86810860     0.14100
H728        H  0.47041306  0.07925789  0.79312876     0.14600
C729        C  0.97384285  0.09227417  0.66707313    -0.14900
C730        C  0.97649010  0.12540577  0.66537906    -0.30100
H731        H  0.97075567  0.07936682  0.70059403     0.14100
H732        H  0.97972945  0.13885054  0.63232014     0.14400
C733        C  0.98160829  0.23193864  0.73889240    -0.14900
C734        C  0.98387025  0.25147845  0.77517430    -0.30100
H735        H  0.48171603  0.24241314  0.69326492     0.14100
H736        H  0.98374637  0.24039952  0.81018554     0.14600
C737        C  0.85024398  0.48712341  0.83692814    -0.14900
C738        C  0.88464195  0.48893646  0.83698195    -0.30100
H739        H  0.89497034  0.99169216  0.80862555     0.14100
H740        H  0.89742209  0.48920528  0.80422319     0.14600
C741        C  0.88532469  0.48184972  0.67215074    -0.14900
C742        C  0.85148432  0.48057548  0.66909873    -0.30100
H743        H  0.88392347  0.96089886  0.68596848     0.14100
H744        H  0.83817143  0.48042374  0.63558105     0.14600
C745        C  0.59968187  0.48715293  0.81725870    -0.14900
C746        C  0.60562000  0.49144642  0.86225266    -0.30100
H747        H  0.57375980  0.48442321  0.80408594     0.14100
H748        H  0.57112295  0.99164014  0.80030690     0.14600
C749        C  0.62450068  0.49489093  0.65544858    -0.14900
C750        C  0.59378254  0.50835696  0.64903406    -0.30100
H751        H  0.63668322  0.48290087  0.62772441     0.14100
H752        H  0.56674022  0.00020500  0.70191050     0.14600
C753        C  0.74233685  0.48266277  0.73953754    -0.14900
C754        C  0.71953491  0.48497215  0.77251891    -0.30100
H755        H  0.74240545  0.99713843  0.80812887     0.14100
H756        H  0.72777710  0.48584774  0.80870305     0.14600
C757        C  0.68295292  0.98259952  0.26099214     0.81700
N758        N  0.67213026  0.98489595  0.21532273    -0.76600
C759        C  0.63885504  0.50081017  0.22061907     0.84200
N760        N  0.62014046  0.50032103  0.25886782    -0.76500
C761        C  0.63449973  0.49992977  0.30185051     0.84200
N762        N  0.65977417  0.98127940  0.29505333    -0.78300
C763        C  0.77993617  0.97888578  0.24954285     0.81700
N764        N  0.79592618  0.98116635  0.29228035    -0.76600
C765        C  0.83053925  0.98004793  0.29568811     0.84200
N766        N  0.84807950  0.97664775  0.25688337    -0.76500
C767        C  0.83248161  0.97440512  0.21493647     0.84200
N768        N  0.79848772  0.97565450  0.21136087    -0.78300
C769        C  0.98562745  0.69632001  0.24140159     0.81700
N770        N  0.98277768  0.67974800  0.28330849    -0.76600
C771        C  0.97987379  0.64623368  0.28599680     0.84200
N772        N  0.98007157  0.62933949  0.24624181    -0.76500
C773        C  0.98303916  0.64551613  0.20409282     0.84200
N774        N  0.98579295  0.67909340  0.20196581    -0.78300
C775        C  0.99192612  0.78782532  0.27314925     0.81700
N776        N  0.99284116  0.80447193  0.31312614    -0.76600
C777        C  0.99478491  0.83805470  0.31177988     0.84200
N778        N  0.99565319  0.85486869  0.26984186    -0.76500
C779        C  0.99468670  0.83860873  0.22952827     0.84200
N780        N  0.99275205  0.80500298  0.23143398    -0.78300
O781        O  0.58081372  0.99475845  0.06910213    -0.73800
O782        O  0.53870021  0.99603401  0.12105986    -0.52700
C783        C  0.56990362  0.99704085  0.11033164     0.79900
O784        O  0.97555717  0.58627541  0.41864695    -0.58400
O785        O  0.97105321  0.54304129  0.37042561    -0.51400
C786        C  0.97280531  0.57398936  0.37793764     0.71900
O787        O  0.98575678  0.58466274  0.07989102    -0.73000
O788        O  0.98210368  0.54106533  0.13276173    -0.53500
C789        C  0.98328176  0.57214829  0.12184037     0.77900
O790        O  0.58478880  0.99105596  0.43690970    -0.58100
O791        O  0.54597342  0.98915916  0.37693385    -0.51200
C792        C  0.57659264  0.98915134  0.39386686     0.74500
Zr793      Zr  0.55269630  0.99182205  0.99237607     2.54700
O794        O  0.59580800  0.54392119  0.00902664    -0.78700
O795        O  0.59987940  0.95562365  0.52141775    -0.92100
Zr796      Zr  0.98836552  0.56222193  0.00124703     2.64700
O797        O  0.52353103  0.60545545  0.99628898    -0.97000
O798        O  0.93248045  0.60310470  0.49931098    -0.79100
O799        O  0.51925728  0.52811574  0.04623903    -0.82500
O800        O  0.51019531  0.52769120  0.45069429    -2.17200
O801        O  0.99448981  0.89831052  0.43712101    -0.65900
O802        O  0.99478430  0.94165292  0.38338912    -0.50400
C803        C  0.99556489  0.91069354  0.39490018     0.72900
O804        O  0.89383551  0.97802950  0.09571394    -0.58800
O805        O  0.93936687  0.98358202  0.14525498    -0.50700
C806        C  0.90777097  0.97886329  0.13647123     0.74700
O807        O  0.89351032  0.98532357  0.42206465    -0.70200
O808        O  0.93923416  0.98832760  0.37563534    -0.48800
C809        C  0.90706722  0.98627773  0.38222569     0.76100
O810        O  0.99269163  0.89954538  0.09765225    -0.65500
O811        O  0.99546422  0.94304076  0.14543138    -0.52700
C812        C  0.99519710  0.91200049  0.13823888     0.74500
Zr813      Zr  0.98968213  0.92187682  0.01584277     2.77500
O814        O  0.95000063  0.87502405  0.01890276    -0.96200
O815        O  0.52541799  0.87707790  0.00161159    -0.77100
Zr816      Zr  0.91253910  0.98475888  0.01660908     2.70100
O817        O  0.87423085  0.93695110  0.01370120    -0.78300
O818        O  0.87799656  0.53543370  0.99782430    -0.97400
Zr819      Zr  0.98729856  0.99235087  0.09726998     2.21500
Zr820      Zr  0.99113434  0.99154367  0.42431606     2.11100
O821        O  0.95468585  0.95338298  0.46497142    -2.46100
O822        O  0.95268364  0.95259231  0.05994126    -0.78100
O823        O  0.52447118  0.95660895  0.46011346    -0.70300
O824        O  0.95045342  0.52648691  0.04339078    -2.31300
O825        O  0.51991062  0.95477231  0.03954419    -2.27500
O826        O  0.94004851  0.52756507  0.46182659    -0.72100
H827        H  0.52209198  0.54186896  0.42860143     0.79900
H828        H  0.93585321  0.53915992  0.06178484     0.81000
H829        H  0.94261131  0.93924600  0.44374859     0.83300
H830        H  0.53467487  0.94198617  0.06043579     0.80900
H831        H  0.92908124  0.59758839  0.01983888     0.43900
H832        H  0.87040755  0.54809236  0.49300581     0.42900
H833        H  0.88643225  0.91910765  0.03141124     0.42500
H834        H  0.93628485  0.87829923  0.48475750     0.40500
H835        H  0.55275664  0.89312927  0.48607852     0.43600
H836        H  0.59060810  0.93552475  0.02453146     0.38400
H837        H  0.58345808  0.56049255  0.02575689     0.44500
H838        H  0.52789352  0.60375344  0.46167959     0.40900
H839        H  0.96391123  0.85561586  0.01331827     0.45800
H840        H  0.61627386  0.95994851  0.99985701     0.44600
H841        H  0.51003830  0.62539855  0.98840953     0.44700
H842        H  0.85605238  0.52573195  0.98724863     0.45100
C843        C  0.99495331  0.85613872  0.35567756    -0.14900
C844        C  0.99759551  0.88934657  0.35473738    -0.30100
H845        H  0.99211941  0.84225819  0.38847784     0.14100
H846        H  0.00030309  0.90254009  0.32134876     0.14600
C847        C  0.99760218  0.89051248  0.18122415    -0.14900
C848        C  0.99465156  0.85728995  0.18377597    -0.30100
H849        H  0.00082060  0.90345175  0.21331520     0.14100
H850        H  0.48292250  0.83945121  0.13647772     0.14600
C851        C  0.97764135  0.62830644  0.33207112    -0.14900
C852        C  0.97209351  0.59542093  0.33496375    -0.30100
H853        H  0.98144117  0.64195908  0.36341907     0.14100
H854        H  0.46428931  0.57900103  0.29672463     0.14600
C855        C  0.98163274  0.59355614  0.16211886    -0.14900
C856        C  0.98386308  0.62682485  0.16075801    -0.30100
H857        H  0.97889423  0.58051930  0.19561235     0.14100
H858        H  0.98674516  0.64044844  0.12777531     0.14400
C859        C  0.98858362  0.73287509  0.23814300    -0.14900
C860        C  0.98945500  0.75126505  0.27587796    -0.30100
H861        H  0.48003110  0.74070457  0.19315383     0.14100
H862        H  0.98818581  0.73919588  0.31020067     0.14600
C863        C  0.85019341  0.98299020  0.34027843    -0.14900
C864        C  0.88458568  0.98451998  0.34042474    -0.30100
H865        H  0.88800772  0.50831831  0.30499016     0.14100
H866        H  0.89753437  0.98423233  0.30783988     0.14600
C867        C  0.88644170  0.97496016  0.17673891    -0.14900
C868        C  0.85257351  0.97318616  0.17328852    -0.30100
H869        H  0.89023886  0.46811308  0.18650270     0.14100
H870        H  0.83953418  0.97291070  0.13959419     0.14600
C871        C  0.59942224  0.98108242  0.31756282    -0.14900
C872        C  0.60490574  0.98686452  0.36229787    -0.30100
H873        H  0.57361720  0.97778356  0.30418458     0.14100
H874        H  0.56679961  0.49762811  0.30148102     0.14600
C875        C  0.62468168  0.98941153  0.15591255    -0.14900
C876        C  0.59338545  0.00174148  0.14990250    -0.30100
H877        H  0.63768888  0.97901489  0.12758439     0.14100
H878        H  0.57294303  0.50044885  0.20367000     0.14600
C879        C  0.74291213  0.98080358  0.24137416    -0.14900
C880        C  0.71963893  0.98159189  0.27401657    -0.30100
H881        H  0.73353457  0.49930715  0.20408703     0.14100
H882        H  0.72743508  0.98092152  0.31046699     0.14600
C883        C  0.68730971  0.99773263  0.74669865     0.81700
N884        N  0.66764051  0.00028716  0.70753990    -0.76600
C885        C  0.63828131  0.49162048  0.70370318     0.84200
N886        N  0.61603283  0.49035759  0.73821008    -0.76500
C887        C  0.62624655  0.48780592  0.78299160     0.84200
N888        N  0.67251928  0.99586892  0.78934974    -0.78300
C889        C  0.78486694  0.99341207  0.75983241     0.81700
N890        N  0.80880401  0.99356808  0.79474740    -0.76600
C891        C  0.84200446  0.99138531  0.78505071     0.84200
N892        N  0.85104856  0.98881984  0.74104711    -0.76500
C893        C  0.82799275  0.98820595  0.70561547     0.84200
N894        N  0.79455890  0.99094092  0.71478981    -0.78300
C895        C  0.98908139  0.69657874  0.74418878     0.81700
N896        N  0.98935366  0.67936257  0.78591713    -0.76600
C897        C  0.98879708  0.64574177  0.78780969     0.84200
N898        N  0.98793020  0.62951088  0.74747018    -0.76500
C899        C  0.98754473  0.64636154  0.70551944     0.84200
N900        N  0.98813263  0.67996476  0.70418180    -0.78300
C901        C  0.99105505  0.78808654  0.77602979     0.81700
N902        N  0.99082834  0.80519125  0.81557501    -0.76600
C903        C  0.99056728  0.83881219  0.81331276     0.84200
N904        N  0.99059453  0.85513531  0.77099999    -0.76500
C905        C  0.99095044  0.83837577  0.73118327     0.84200
N906        N  0.99118955  0.80481581  0.73397521    -0.78300
O907        O  0.57187900  0.99901402  0.58779371    -0.73800
O908        O  0.52592360  0.99464956  0.63340735    -0.52700
C909        C  0.55769381  0.99816070  0.62721622     0.79900
O910        O  0.98830102  0.58445374  0.91941031    -0.58400
O911        O  0.99246005  0.54132611  0.87164288    -0.51400
C912        C  0.99019878  0.57221365  0.87887196     0.71900
O913        O  0.98287556  0.58642341  0.57965866    -0.73000
O914        O  0.98505458  0.54283699  0.63285384    -0.53500
C915        C  0.98452595  0.57388207  0.62183764     0.77900
O916        O  0.57524973  0.99207320  0.91502383    -0.58100
O917        O  0.52956032  0.99076032  0.86461742    -0.51200
C918        C  0.56181588  0.99154624  0.87396331     0.74500
Zr919      Zr  0.55430139  0.99473357  0.50727080     2.54700
O920        O  0.59115491  0.53985336  0.48436815    -0.78700
O921        O  0.59429894  0.94824990  0.99493369    -0.92100
Zr922      Zr  0.97844752  0.56398320  0.50063229     2.64700
O923        O  0.51637487  0.60600286  0.49128868    -0.97000
O924        O  0.94467726  0.60377955  0.99458664    -0.79100
O925        O  0.51597709  0.52828767  0.53799370    -0.82500
O926        O  0.52304191  0.52803544  0.95837773    -2.17200
O927        O  0.98976263  0.89994570  0.93686324    -0.65900
O928        O  0.98032092  0.94253108  0.88349194    -0.50400
C929        C  0.98549770  0.91197420  0.89474209     0.72900
O930        O  0.88554159  0.98153437  0.57499754    -0.58800
O931        O  0.92728254  0.98175570  0.63138631    -0.50700
C932        C  0.89613451  0.97946642  0.61760154     0.74700
O933        O  0.88306328  0.98866734  0.94262286    -0.70200
O934        O  0.92236476  0.99020534  0.88649194    -0.48800
C935        C  0.89164136  0.98977765  0.90029122     0.76100
O936        O  0.98917098  0.89818203  0.59791795    -0.65500
O937        O  0.98387487  0.94130515  0.64541049    -0.52700
C938        C  0.98667900  0.91049428  0.63837523     0.74500
Zr939      Zr  0.99022176  0.92046938  0.51590644     2.77500
O940        O  0.94726190  0.87649335  0.51604265    -0.96200
O941        O  0.53552850  0.88199794  0.50581427    -0.77100
Zr942      Zr  0.91500484  0.98617627  0.50167279     2.70100
O943        O  0.87503377  0.93981577  0.49612381    -0.78300
O944        O  0.86814260  0.53300857  0.52080173    -0.97400
Zr945      Zr  0.98178968  0.99067214  0.59691423     2.21500
Zr946      Zr  0.97811904  0.99253210  0.92486957     2.11100
O947        O  0.94803000  0.95284322  0.97198773    -2.46100
O948        O  0.94989479  0.95262462  0.55225506    -0.78100
O949        O  0.51549580  0.95556679  0.95123162    -0.70300
O950        O  0.94606505  0.52742346  0.54971512    -2.31300
O951        O  0.51879400  0.95601176  0.54729491    -2.27500
O952        O  0.95408636  0.52624353  0.95554688    -0.72100
H953        H  0.53687892  0.54241070  0.93873206     0.79900
H954        H  0.93322847  0.53993200  0.57056668     0.81000
H955        H  0.93428792  0.93832066  0.95308011     0.83300
H956        H  0.53195709  0.94380558  0.57081609     0.80900
H957        H  0.91544062  0.59421734  0.47703409     0.43900
H958        H  0.88497077  0.55048340  0.97168132     0.42900
H959        H  0.88751376  0.92059442  0.50981843     0.42500
H960        H  0.93548216  0.87793122  0.99050623     0.40500
H961        H  0.54511084  0.88828875  0.98696493     0.43600
H962        H  0.59234757  0.94073520  0.54744307     0.38400
H963        H  0.57767235  0.56013424  0.48540798     0.44500
H964        H  0.53733823  0.60280178  0.96876396     0.40900
H965        H  0.96024324  0.85582285  0.51619624     0.45800
H966        H  0.61883049  0.96883474  0.53480966     0.44600
H967        H  0.50262038  0.62607167  0.48609066     0.44700
H968        H  0.84590391  0.52177321  0.51623594     0.45100
C969        C  0.98994004  0.85745986  0.85661784    -0.14900
C970        C  0.98659334  0.89051799  0.85460935    -0.30100
H971        H  0.99184109  0.84401151  0.89001257     0.14100
H972        H  0.98417732  0.90328117  0.82072890     0.14600
C973        C  0.98707443  0.88934633  0.68161727    -0.14900
C974        C  0.99075134  0.85640393  0.68501681    -0.30100
H975        H  0.98421547  0.90241679  0.71330619     0.14100
H976        H  0.48411817  0.83898456  0.63723193     0.14600
C977        C  0.98910563  0.62702050  0.83352762    -0.14900
C978        C  0.98960697  0.59375277  0.83590591    -0.30100
H979        H  0.98914273  0.64057891  0.86514529     0.14100
H980        H  0.48605219  0.57873422  0.79807313     0.14600
C981        C  0.98579911  0.59506726  0.66247978    -0.14900
C982        C  0.98631886  0.62833475  0.66152773    -0.30100
H983        H  0.98644320  0.58172876  0.69605768     0.14100
H984        H  0.98581101  0.64236669  0.62853058     0.14400
C985        C  0.98980940  0.73316815  0.74146981    -0.14900
C986        C  0.99069920  0.75148359  0.77927776    -0.30100
H987        H  0.48059276  0.74072997  0.69453924     0.14100
H988        H  0.99089137  0.73938502  0.81366609     0.14600
C989        C  0.86917977  0.99154096  0.82056278    -0.14900
C990        C  0.86357159  0.99058119  0.86579909    -0.30100
H991        H  0.83697906  0.48698760  0.86927381     0.14100
H992        H  0.83782290  0.99007376  0.87790144     0.14600
C993        C  0.87233987  0.97301614  0.65518410    -0.14900
C994        C  0.84117921  0.98568133  0.65823249    -0.30100
H995        H  0.89842583  0.48214187  0.70582469     0.14100
H996        H  0.82833674  0.99769174  0.62842562     0.14600
C997        C  0.61890735  0.99421011  0.83548886    -0.14900
C998        C  0.58439455  0.99225468  0.83379005    -0.30100
H999        H  0.63274929  0.99445029  0.86856458     0.14100
H1000       H  0.63144501  0.49452384  0.87560968     0.14600
C1001       C  0.61293518  0.00224115  0.66712001    -0.14900
C1002       C  0.57915998  0.00081275  0.66882955    -0.30100
H1003       H  0.62548351  0.00260460  0.63415631     0.14100
H1004       H  0.58273835  0.52031798  0.67780155     0.14600
C1005       C  0.74870770  0.99561189  0.77195525    -0.14900
C1006       C  0.72405552  0.99572673  0.73921424    -0.30100
H1007       H  0.73338927  0.48136056  0.70364974     0.14100
H1008       H  0.73110835  0.99457599  0.70324270     0.14600
loop_ 
_geom_bond_atom_site_label_1 
_geom_bond_atom_site_label_2 
_geom_bond_distance 
_geom_bond_site_symmetry_2 
_ccdc_geom_bond_type 
C1            N2   1.366       .  A
C1            N6   1.366       .  A
C1          C124   1.486       .  S
N2          C255   1.354       .  A
C3            N4   1.348       .  A
C3          N254   1.349       .  A
C3          C371   1.467       .  S
N4            C5   1.345       .  A
C5          N258   1.370       .  A
C5          C367   1.477       .  S
N6          C257   1.363       .  A
C7            N8   1.371       .  A
C7           N12   1.362       .  A
C7          C123   1.474       .  S
N8            C9   1.367       .  A
C9           N10   1.345       .  A
C9          C107   1.472       .  S
N10          C11   1.349       .  A
C11          N12   1.351       .  A
C11         C112   1.473       .  S
C13          N14   1.363       .  A
C13          N18   1.361       .  A
C13         C103   1.476       .  S
N14          C15   1.357       .  A
C15          N16   1.362       .  A
C15          C95   1.490       .  S
N16          C17   1.362       .  A
C17          N18   1.357       .  A
C17         C100   1.491       .  S
C19          N20   1.362       .  A
C19          N24   1.362       .  A
C19         C104   1.477       .  S
N20          C21   1.358       .  A
C21          N22   1.361       .  A
C21          C87   1.491       .  S
N22          C23   1.362       .  A
C23          N24   1.356       .  A
C23          C92   1.488       .  S
O25         Zr37   2.440       .  S
O25          C27   1.285       .  A
O26        Zr567   2.399   1_455  S
O26          C27   1.281       .  A
C27         C120   1.464       .  S
O28        Zr166   2.492       .  S
O28          C30   1.297       .  A
O29        Zr316   2.392   1_545  S
O29          C30   1.281       .  A
C30          C96   1.481       .  S
O31         Zr40   2.487   1_554  S
O31          C33   1.297       .  A
O32        Zr315   2.399   1_545  S
O32          C33   1.282       .  A
C33          C99   1.482       .  S
O34        Zr163   2.407       .  S
O34          C36   1.281       .  A
O35        Zr568   2.451   1_455  S
O35          C36   1.292       .  A
C36         C116   1.473       .  S
Zr37        O160   2.401   1_554  S
Zr37         O69   2.363       .  S
Zr37        O295   2.367       .  S
Zr37        O422   2.385   1_554  S
Zr37        O193   2.383   1_554  S
Zr37        O290   2.433       .  S
Zr37        O165   2.437       .  S
O38        Zr289   2.432   1_546  S
O38          H81   0.990   1_556  S
O39        Zr163   2.437       .  S
O39         H206   0.990       .  S
O39         H210   0.990       .  S
Zr40        O154   2.493       .  S
Zr40         O68   2.387   1_556  S
Zr40        O674   2.378       .  S
Zr40        O547   2.379   1_556  S
Zr40        O196   2.381       .  S
Zr40        O545   2.435       .  S
Zr40        O168   2.433       .  S
O41        Zr544   2.434   1_455  S
O41          H85   0.990   1_554  S
O41         H208   0.990   1_554  S
O42        Zr166   2.434       .  S
O42         H201   0.990       .  S
O43        Zr289   2.369   1_545  S
O43        Zr544   2.380   1_455  S
O43        Zr819   2.369   1_445  S
O44        Zr415   2.380   1_545  S
O44        Zr670   2.385   1_455  S
O44        Zr820   2.379   1_445  S
O44          H71   0.967       .  S
O45        Zr183   2.488       .  S
O45          C47   1.297       .  A
O46         Zr64   2.401       .  S
O46          C47   1.283       .  A
C47          C88   1.483       .  S
O48         Zr60   2.442   1_554  S
O48          C50   1.286       .  A
O49         Zr63   2.390       .  S
O49          C50   1.279       .  A
C50         C111   1.457       .  S
O51        Zr186   2.411       .  S
O51          C53   1.279       .  A
O52         Zr64   2.457       .  S
O52          C53   1.295       .  A
C53         C108   1.482       .  S
O54         Zr57   2.487       .  S
O54          C56   1.296       .  A
O55         Zr63   2.389       .  S
O55          C56   1.280       .  A
C56          C91   1.478       .  S
Zr57        O171   2.493   1_554  S
Zr57         O66   2.379       .  S
Zr57        O191   2.379   1_554  S
Zr57        O573   2.385       .  S
Zr57        O697   2.378   1_554  S
Zr57         O58   2.435       .  S
Zr57        O563   2.434       .  S
O58          H83   0.990   1_554  S
O58         H204   0.990   1_554  S
O59        Zr561   2.434   1_455  S
O59         H205   0.990       .  S
Zr60        O177   2.425       .  S
Zr60         O66   2.371   1_556  S
Zr60        O191   2.378       .  S
Zr60        O448   2.382       .  S
Zr60        O320   2.370   1_556  S
Zr60         O61   2.434       .  S
Zr60        O314   2.435       .  S
O61          H77   0.990   1_556  S
O62        Zr312   2.435   1_544  S
O62          H86   0.990   1_554  S
O62         H202   0.991   1_554  S
Zr63        O530   2.412       .  S
Zr63        O284   2.393       .  S
Zr63         O66   2.369       .  S
Zr63        O799   2.364       .  S
Zr63        O320   2.376       .  S
Zr63        O573   2.365       .  S
Zr64        O281   2.395       .  S
Zr64        O539   2.440       .  S
Zr64         O65   2.379       .  S
Zr64        O800   2.385       .  S
Zr64        O571   2.381       .  S
Zr64        O322   2.374       .  S
O65        Zr183   2.386       .  S
O65        Zr186   2.379       .  S
O65          H73   0.968       .  S
O67        Zr163   2.378       .  S
O67        Zr687   2.378   1_455  S
O67        Zr568   2.381   1_455  S
O68        Zr312   2.365   1_544  S
O68        Zr315   2.372   1_545  S
O68          H72   0.968       .  S
O69        Zr561   2.382   1_455  S
O69        Zr567   2.367   1_455  S
O69          H74   0.966       .  S
O70        Zr166   2.379       .  S
O70        Zr438   2.377   1_545  S
O70        Zr316   2.378   1_545  S
H75         O168   0.990   1_554  S
H76         O188   0.990       .  S
H78         O184   0.989       .  S
H79         O185   0.990       .  S
H80         O165   0.991       .  S
H82         O167   0.990       .  S
H84         O165   0.990       .  S
C87          C88   1.345       .  D
C87          H89   1.086       .  S
C88          H90   1.087       .  S
C91          C92   1.342       .  D
C91          H93   1.087       .  S
C92         H598   1.086       .  S
H94         C596   1.086       .  S
C95          C96   1.343       .  D
C95          H97   1.086       .  S
C96         H602   1.087       .  S
H98         C600   1.087       .  S
C99         C100   1.344       .  D
C99         H101   1.087       .  S
C100        H102   1.086       .  S
C103        C104   1.345       .  D
C103        H609   1.086       .  S
C104        H106   1.086       .  S
H105        C607   1.087       .  S
C107        C108   1.334       .  D
C107        H361   1.087       .  S
C108        H110   1.087       .  S
H109        C359   1.086       .  S
C111        C112   1.341       .  D
C111        H365   1.088       .  S
C112        H114   1.086       .  S
H113        C363   1.087       .  S
C115        C257   1.478       .  S
C115        C116   1.356       .  D
C115        H117   1.086       .  S
C116        H370   1.086       .  S
H118        C368   1.087       .  S
C119        C255   1.477       .  S
C119        C120   1.345       .  D
C119        H121   1.086       .  S
C120        H374   1.087       .  S
H122        C372   1.088       .  S
C123        C124   1.345       .  D
C123        H377   1.087       .  S
C124        H126   1.086       .  S
H125        C375   1.086       .  S
C127        N128   1.367       .  A
C127        N132   1.368       .  A
C127        C250   1.485       .  S
N128        C381   1.353       .  A
C129        N380   1.359       .  A
C129        N130   1.349       .  A
C129        C497   1.483       .  S
N130        C131   1.350       .  A
C131        N384   1.362       .  A
C131        C493   1.480       .  S
N132        C383   1.365       .  A
C133        N134   1.369       .  A
C133        N138   1.360       .  A
C133        C249   1.475       .  S
N134        C135   1.365       .  A
C135        N136   1.351       .  A
C135        C233   1.484       .  S
N136        C137   1.348       .  A
C137        N138   1.351       .  A
C137        C238   1.471       .  S
C139        N140   1.363       .  A
C139        N144   1.362       .  A
C139        C229   1.479       .  S
N140        C141   1.358       .  A
C141        N142   1.363       .  A
C141        C221   1.491       .  S
N142        C143   1.362       .  A
C143        N144   1.358       .  A
C143        C226   1.493       .  S
C145        N146   1.361       .  A
C145        N150   1.363       .  A
C145        C230   1.479       .  S
N146        C147   1.358       .  A
C147        N148   1.362       .  A
C147        C213   1.492       .  S
N148        C149   1.363       .  A
C149        N150   1.358       .  A
C149        C218   1.492       .  S
O151       Zr163   2.442       .  S
O151        C153   1.285       .  A
O152       Zr693   2.394   1_455  S
O152        C153   1.280       .  A
C153        C246   1.458       .  S
O154        C156   1.298       .  A
O155       Zr442   2.389   1_545  S
O155        C156   1.280       .  A
C156        C222   1.481       .  S
O157       Zr166   2.490       .  S
O157        C159   1.297       .  A
O158       Zr441   2.406   1_545  S
O158        C159   1.283       .  A
C159        C225   1.486       .  S
O160        C162   1.278       .  A
O161       Zr694   2.456   1_455  S
O161        C162   1.295       .  A
C162        C242   1.477       .  S
Zr163       O421   2.366       .  S
Zr163       O296   2.382       .  S
Zr163       O195   2.367       .  S
Zr163       O416   2.433       .  S
O164       Zr415   2.433   1_545  S
O164        H207   0.990       .  S
Zr166       O548   2.385       .  S
Zr166       O673   2.378       .  S
Zr166       O194   2.390       .  S
Zr166       O671   2.435       .  S
O167       Zr670   2.434   1_455  S
O167        H211   0.990       .  S
O169       Zr415   2.369   1_545  S
O169       Zr670   2.380   1_455  S
O169       Zr945   2.368   1_445  S
O170       Zr289   2.375   1_546  S
O170       Zr544   2.378   1_456  S
O170       Zr946   2.377   1_445  S
O170        H197   0.965       .  S
O171        C173   1.297       .  A
O172       Zr190   2.399       .  S
O172        C173   1.282       .  A
C173        C214   1.484       .  S
O174       Zr186   2.429       .  S
O174        C176   1.285       .  A
O175       Zr189   2.404       .  S
O175        C176   1.282       .  A
C176        C237   1.464       .  S
O177        C179   1.284       .  A
O178       Zr190   2.442       .  S
O178        C179   1.290       .  A
C179        C234   1.474       .  S
O180       Zr183   2.489       .  S
O180        C182   1.297       .  A
O181       Zr189   2.397       .  S
O181        C182   1.281       .  A
C182        C217   1.483       .  S
Zr183       O192   2.378       .  S
Zr183       O699   2.383       .  S
Zr183       O571   2.377       .  S
Zr183       O184   2.435       .  S
Zr183       O689   2.435       .  S
O184        H209   0.991       .  S
O185       Zr687   2.433   1_455  S
Zr186       O192   2.366       .  S
Zr186       O322   2.381       .  S
Zr186       O446   2.366       .  S
Zr186       O187   2.434       .  S
Zr186       O440   2.435       .  S
O187        H203   0.990       .  S
O188       Zr438   2.434   1_545  S
O188        H212   0.990       .  S
Zr189       O656   2.403       .  S
Zr189       O410   2.384       .  S
Zr189       O925   2.369       .  S
Zr189       O192   2.367       .  S
Zr189       O446   2.375       .  S
Zr189       O699   2.371       .  S
Zr190       O407   2.400       .  S
Zr190       O665   2.444       .  S
Zr190       O926   2.380       .  S
Zr190       O191   2.380       .  S
Zr190       O697   2.373       .  S
Zr190       O448   2.377       .  S
O191        H199   0.965       .  S
O193       Zr561   2.379   1_456  S
O193       Zr694   2.379   1_455  S
O194       Zr438   2.367   1_545  S
O194       Zr441   2.375   1_545  S
O194        H198   0.966       .  S
O195       Zr687   2.386   1_455  S
O195       Zr693   2.370   1_455  S
O195        H200   0.966       .  S
O196       Zr312   2.381   1_545  S
O196       Zr442   2.376   1_545  S
C213        C214   1.344       .  D
C213        H215   1.086       .  S
C214        H216   1.087       .  S
C217        C218   1.344       .  D
C217        H219   1.087       .  S
C218        H724   1.086       .  S
H220        C722   1.086       .  S
C221        C222   1.343       .  D
C221        H223   1.086       .  S
C222        H728   1.087       .  S
H224        C726   1.087       .  S
C225        C226   1.346       .  D
C225        H227   1.087       .  S
C226        H228   1.086       .  S
C229        C230   1.345       .  D
C229        H735   1.086       .  S
C230        H232   1.086       .  S
H231        C733   1.086       .  S
C233        C234   1.355       .  D
C233        H487   1.086       .  S
C234        H236   1.086       .  S
H235        C485   1.088       .  S
C237        C238   1.345       .  D
C237        H491   1.087       .  S
C238        H240   1.086       .  S
H239        C489   1.088       .  S
C241        C383   1.470       .  S
C241        C242   1.331       .  D
C241        H243   1.087       .  S
C242        H496   1.087       .  S
H244        C494   1.086       .  S
C245        C381   1.473       .  S
C245        C246   1.342       .  D
C245        H247   1.086       .  S
C246        H500   1.088       .  S
H248        C498   1.087       .  S
C249        C250   1.346       .  D
C249        H503   1.087       .  S
C250        H252   1.086       .  S
H251        C501   1.087   1_545  S
C253        N254   1.363       .  A
C253        N258   1.374       .  A
C253        C376   1.489       .  S
C255        N256   1.349       .  A
N256        C257   1.348       .  A
C259        N260   1.366       .  A
C259        N264   1.366       .  A
C259        C375   1.478       .  S
N260        C261   1.362       .  A
C261        N262   1.349       .  A
C261        C359   1.474       .  S
N262        C263   1.347       .  A
C263        N264   1.357       .  A
C263        C364   1.480       .  S
C265        N266   1.366       .  A
C265        N270   1.359       .  A
C265        C355   1.480       .  S
N266        C267   1.361       .  A
C267        N268   1.362       .  A
C267        C347   1.495       .  S
N268        C269   1.361       .  A
C269        N270   1.355       .  A
C269        C352   1.486       .  S
C271        N272   1.359       .  A
C271        N276   1.366       .  A
C271        C356   1.479       .  S
N272        C273   1.355       .  A
C273        N274   1.363       .  A
C273        C339   1.489       .  S
N274        C275   1.364       .  A
C275        N276   1.361       .  A
C275        C344   1.496       .  S
O277       Zr289   2.434   1_545  S
O277        C279   1.285       .  A
O278       Zr819   2.388   1_445  S
O278        C279   1.279       .  A
C279        C372   1.452       .  S
O280       Zr418   2.501       .  S
O280        C282   1.298       .  A
O281        C282   1.282       .  A
C282        C348   1.486       .  S
O283       Zr292   2.487   1_554  S
O283        C285   1.297       .  A
O284        C285   1.281       .  A
C285        C351   1.479       .  S
O286       Zr415   2.410       .  S
O286        C288   1.280       .  A
O287       Zr820   2.465   1_455  S
O287        C288   1.296       .  A
C288        C368   1.486       .  S
Zr289       O412   2.422   1_564  S
Zr289       O445   2.376   1_554  S
Zr289       O321   2.371       .  S
Zr289       O417   2.435       .  S
O290        H333   0.990       .  S
O291       Zr415   2.437       .  S
O291        H458   0.990       .  S
O291        H462   0.990       .  S
Zr292       O406   2.493       .  S
Zr292       O926   2.382       .  S
Zr292       O799   2.384   1_556  S
Zr292       O320   2.384   1_556  S
Zr292       O448   2.379       .  S
Zr292       O797   2.437       .  S
Zr292       O420   2.435       .  S
O293       Zr796   2.436   1_455  S
O293        H460   0.990   1_554  S
O293        H337   0.990   1_554  S
O294       Zr418   2.436       .  S
O294        H453   0.990       .  S
O295       Zr796   2.384   1_455  S
O295       Zr567   2.365   1_455  S
O296       Zr922   2.379   1_455  S
O296       Zr568   2.385   1_455  S
O296        H323   0.965       .  S
O297       Zr435   2.493       .  S
O297        C299   1.297       .  A
O298       Zr316   2.391       .  S
O298        C299   1.280       .  A
C299        C340   1.482       .  S
O300       Zr312   2.436   1_554  S
O300        C302   1.285       .  A
O301       Zr315   2.414       .  S
O301        C302   1.284       .  A
C302        C363   1.469       .  S
O303       Zr438   2.414       .  S
O303        C305   1.282       .  A
O304       Zr316   2.431       .  S
O304        C305   1.288       .  A
C305        C360   1.467       .  S
O306       Zr309   2.491   1_554  S
O306        C308   1.297       .  A
O307       Zr315   2.402       .  S
O307        C308   1.283       .  A
C308        C343   1.486       .  S
Zr309       O423   2.486       .  S
Zr309       O443   2.382       .  S
Zr309       O318   2.379   1_556  S
Zr309       O825   2.383   1_556  S
Zr309       O949   2.382       .  S
Zr309       O310   2.435   1_556  S
Zr309       O815   2.434   1_556  S
O310        H456   0.990   1_554  S
O310        H335   0.990   1_554  S
O311       Zr813   2.437   1_455  S
O311        H457   0.990       .  S
Zr312       O429   2.410       .  S
Zr312       O318   2.368   1_556  S
Zr312       O443   2.379       .  S
Zr312       O313   2.435       .  S
O313        H329   0.990   1_556  S
O314        H454   0.990       .  S
O314        H338   0.990       .  S
Zr315       O782   2.398       .  S
Zr315       O547   2.369   1_565  S
Zr315       O318   2.368       .  S
Zr315       O825   2.375       .  S
Zr316       O791   2.442       .  S
Zr316       O548   2.376   1_565  S
Zr316       O317   2.380       .  S
Zr316       O823   2.368       .  S
O317       Zr435   2.378       .  S
O317       Zr438   2.377       .  S
O317        H325   0.964       .  S
O319       Zr415   2.378       .  S
O319       Zr939   2.381   1_455  S
O319       Zr820   2.378   1_455  S
O320        H324   0.968       .  S
O321       Zr813   2.383   1_455  S
O321       Zr819   2.372   1_455  S
O321        H326   0.967       .  S
O322       Zr418   2.383       .  S
H327        O420   0.990   1_554  S
H328        O440   0.991       .  S
H330        O436   0.990       .  S
H331        O437   0.990       .  S
H332        O417   0.990       .  S
H334        O419   0.990       .  S
H336        O417   0.990   1_556  S
C339        C340   1.342       .  D
C339        H341   1.086       .  S
C340        H342   1.087       .  S
C343        C344   1.347       .  D
C343        H345   1.087       .  S
C344        H850   1.086       .  S
H346        C848   1.086       .  S
C347        C348   1.347       .  D
C347        H349   1.086       .  S
C348        H854   1.087       .  S
H350        C852   1.087       .  S
C351        C352   1.342       .  D
C351        H353   1.087       .  S
C352        H354   1.086       .  S
C355        C356   1.342       .  D
C355        H861   1.087       .  S
C356        H358   1.086       .  S
H357        C859   1.086       .  S
C359        C360   1.353       .  D
C360        H362   1.087       .  S
C363        C364   1.350       .  D
C364        H366   1.086       .  S
C367        C368   1.334       .  D
C367        H369   1.087       .  S
C371        C372   1.338   1_565  D
C371        H373   1.086       .  S
C375        C376   1.353       .  D
C376        H378   1.086       .  S
C379        N380   1.369       .  A
C379        N384   1.365       .  A
C379        C502   1.491   1_545  S
C381        N382   1.348       .  A
N382        C383   1.343       .  A
C385        N386   1.376       .  A
C385        N390   1.360       .  A
C385        C501   1.481       .  S
N386        C387   1.372       .  A
C387        N388   1.346       .  A
C387        C485   1.482       .  S
N388        C389   1.349       .  A
C389        N390   1.349       .  A
C389        C490   1.470       .  S
C391        N392   1.366       .  A
C391        N396   1.357       .  A
C391        C481   1.475       .  S
N392        C393   1.360       .  A
C393        N394   1.362       .  A
C393        C473   1.494       .  S
N394        C395   1.361       .  A
C395        N396   1.353       .  A
C395        C478   1.485       .  S
C397        N398   1.358       .  A
C397        N402   1.366       .  A
C397        C482   1.475       .  S
N398        C399   1.354       .  A
C399        N400   1.361       .  A
C399        C465   1.484       .  S
N400        C401   1.361       .  A
C401        N402   1.360       .  A
C401        C470   1.495       .  S
O403       Zr415   2.433   1_545  S
O403        C405   1.284   1_545  A
O404       Zr945   2.427   1_455  S
O404        C405   1.287       .  A
C405        C498   1.473   1_565  S
O406        C408   1.297       .  A
O407        C408   1.282       .  A
C408        C474   1.485       .  S
O409       Zr418   2.491       .  S
O409        C411   1.297       .  A
O410        C411   1.279       .  A
C411        C477   1.477       .  S
O412        C414   1.284   1_545  A
O413       Zr946   2.435   1_455  S
O413        C414   1.289       .  A
C414        C494   1.471   1_565  S
Zr415       O447   2.367       .  S
O416        H459   0.990       .  S
Zr418       O800   2.376       .  S
Zr418       O925   2.382       .  S
Zr418       O446   2.384       .  S
Zr418       O923   2.435       .  S
O419       Zr922   2.435   1_455  S
O419        H463   0.990       .  S
O421       Zr922   2.381   1_455  S
O421       Zr693   2.368   1_455  S
O422       Zr796   2.383   1_456  S
O422       Zr694   2.380   1_455  S
O422        H449   0.967       .  S
O423        C425   1.297       .  A
O424       Zr442   2.386       .  S
O424        C425   1.280       .  A
C425        C466   1.476       .  S
O426       Zr438   2.439       .  S
O426        C428   1.285       .  A
O427       Zr441   2.389       .  S
O427        C428   1.279       .  A
C428        C489   1.454       .  S
O429        C431   1.280       .  A
O430       Zr442   2.474       .  S
O430        C431   1.298       .  A
C431        C486   1.488       .  S
O432       Zr435   2.491       .  S
O432        C434   1.297       .  A
O433       Zr441   2.405       .  S
O433        C434   1.283       .  A
C434        C469   1.486       .  S
Zr435       O444   2.379       .  S
Zr435       O951   2.383       .  S
Zr435       O823   2.378       .  S
Zr435       O436   2.434       .  S
Zr435       O941   2.434       .  S
O436        H461   0.991       .  S
O437       Zr939   2.435   1_455  S
Zr438       O444   2.368       .  S
Zr438       O439   2.434       .  S
O439        H455   0.990       .  S
O440        H464   0.990       .  S
Zr441       O908   2.395       .  S
Zr441       O673   2.366   1_565  S
Zr441       O444   2.368       .  S
Zr441       O951   2.371       .  S
Zr442       O917   2.466       .  S
Zr442       O674   2.380   1_565  S
Zr442       O443   2.380       .  S
Zr442       O949   2.381       .  S
O443        H451   0.967       .  S
O445       Zr813   2.380   1_456  S
O445       Zr946   2.377   1_455  S
O446        H450   0.967       .  S
O447       Zr939   2.381   1_455  S
O447       Zr945   2.372   1_455  S
O447        H452   0.965       .  S
C465        C466   1.340       .  D
C465        H467   1.086       .  S
C466        H468   1.087       .  S
C469        C470   1.347       .  D
C469        H471   1.087       .  S
C470        H976   1.086       .  S
H472        C974   1.086       .  S
C473        C474   1.347       .  D
C473        H475   1.086       .  S
C474        H980   1.087       .  S
H476        C978   1.087       .  S
C477        C478   1.340       .  D
C477        H479   1.088       .  S
C478        H480   1.086       .  S
C481        C482   1.340       .  D
C481        H987   1.087       .  S
C482        H484   1.087       .  S
H483        C985   1.086       .  S
C485        C486   1.334       .  D
C486        H488   1.087       .  S
C489        C490   1.338       .  D
C490        H492   1.086       .  S
C493        C494   1.353       .  D
C493        H495   1.086       .  S
C497        C498   1.352       .  D
C497        H499   1.086       .  S
C501        C502   1.344       .  D
C502        H504   1.086       .  S
C505        N506   1.371       .  A
C505        N510   1.363       .  A
C505        C628   1.487       .  S
N506        C759   1.360       .  A
C507        N758   1.360       .  A
C507        N508   1.349       .  A
C507        C875   1.484       .  S
N508        C509   1.342       .  A
C509        N762   1.361       .  A
C509        C871   1.467       .  S
N510        C761   1.359       .  A
C511        N512   1.377       .  A
C511        N516   1.359       .  A
C511        C627   1.477       .  S
N512        C513   1.372       .  A
C513        N514   1.345       .  A
C513        C611   1.482       .  S
N514        C515   1.348       .  A
C515        N516   1.346       .  A
C515        C616   1.466       .  S
C517        N518   1.367       .  A
C517        N522   1.358       .  A
C517        C607   1.476       .  S
N518        C519   1.362       .  A
C519        N520   1.361       .  A
C519        C599   1.496       .  S
N520        C521   1.361       .  A
C521        N522   1.354       .  A
C521        C604   1.485       .  S
C523        N524   1.357       .  A
C523        N528   1.366       .  A
C523        C608   1.476       .  S
N524        C525   1.353       .  A
C525        N526   1.361       .  A
C525        C591   1.482       .  S
N526        C527   1.362       .  A
C527        N528   1.360       .  A
C527        C596   1.494       .  S
O529       Zr541   2.442       .  S
O529        C531   1.285       .  A
O530        C531   1.284       .  A
C531        C624   1.470       .  S
O532       Zr670   2.492       .  S
O532        C534   1.297       .  A
O533       Zr820   2.409   1_545  S
O533        C534   1.285       .  A
C534        C600   1.488       .  S
O535       Zr544   2.487       .  S
O535        C537   1.296       .  A
O536       Zr819   2.389   1_545  S
O536        C537   1.280       .  A
C537        C603   1.477       .  S
O538       Zr667   2.404       .  S
O538        C540   1.281       .  A
O539        C540   1.289       .  A
C540        C620   1.468       .  S
Zr541       O664   2.402   1_554  S
Zr541       O799   2.366       .  S
Zr541       O926   2.381   1_554  S
Zr541       O697   2.383   1_554  S
Zr541       O573   2.363       .  S
Zr541       O794   2.433       .  S
Zr541       O669   2.437       .  S
O542       Zr793   2.435   1_545  S
O542        H585   0.991   1_556  S
O543       Zr667   2.436       .  S
O543        H710   0.990       .  S
O543        H714   0.990       .  S
Zr544       O658   2.501   1_554  S
Zr544       O572   2.384       .  S
Zr544       O700   2.378   1_554  S
Zr544       O672   2.435       .  S
O545        H712   0.990       .  S
O545        H589   0.990       .  S
O546       Zr670   2.436       .  S
O546        H705   0.990       .  S
O547       Zr793   2.372   1_544  S
O548       Zr919   2.372   1_545  S
O548        H575   0.967       .  S
O549       Zr687   2.482       .  S
O549        C551   1.296       .  A
O550       Zr568   2.386       .  S
O550        C551   1.279       .  A
C551        C592   1.474       .  S
O552       Zr564   2.440   1_554  S
O552        C554   1.286       .  A
O553       Zr567   2.376       .  S
O553        C554   1.277       .  A
C554        C615   1.451       .  S
O555       Zr690   2.423       .  S
O555        C557   1.282       .  A
O556       Zr568   2.468       .  S
O556        C557   1.297       .  A
C557        C612   1.492       .  S
O558       Zr561   2.495       .  S
O558        C560   1.297       .  A
O559       Zr567   2.394       .  S
O559        C560   1.281       .  A
C560        C595   1.484       .  S
Zr561       O675   2.494   1_554  S
Zr561       O695   2.381   1_554  S
Zr561       O570   2.378       .  S
Zr561       O562   2.436       .  S
O562        H708   0.990   1_554  S
O562        H587   0.990       .  S
O563        H709   0.990       .  S
Zr564       O681   2.433       .  S
Zr564       O570   2.372   1_556  S
Zr564       O695   2.379       .  S
Zr564       O952   2.379       .  S
Zr564       O824   2.371   1_556  S
Zr564       O565   2.434       .  S
Zr564       O818   2.434       .  S
O565        H581   0.990   1_556  S
O566       Zr816   2.436   1_545  S
O566        H706   0.990       .  S
O566        H590   0.990       .  S
Zr567       O788   2.403       .  S
Zr567       O570   2.371       .  S
Zr567       O824   2.375       .  S
Zr568       O785   2.390       .  S
Zr568       O569   2.379       .  S
Zr568       O826   2.371       .  S
O569       Zr687   2.387       .  S
O569       Zr690   2.374       .  S
O569        H577   0.968       .  S
O571       Zr667   2.379       .  S
O572       Zr816   2.361   1_545  S
O572       Zr819   2.371   1_545  S
O572        H576   0.967       .  S
O573        H578   0.966       .  S
O574       Zr670   2.381       .  S
O574       Zr942   2.382   1_545  S
O574       Zr820   2.379   1_545  S
H579        O672   0.990       .  S
H580        O692   0.990       .  S
H582        O688   0.989       .  S
H583        O689   0.990       .  S
H584        O669   0.990       .  S
H586        O671   0.990       .  S
H588        O669   0.990       .  S
C591        C592   1.339       .  D
C591        H593   1.086       .  S
C592        H594   1.087       .  S
C595        C596   1.345       .  D
C595        H597   1.087       .  S
C599        C600   1.349       .  D
C599        H601   1.086       .  S
C603        C604   1.341       .  D
C603        H605   1.087       .  S
C604        H606   1.086       .  S
C607        C608   1.340       .  D
C608        H610   1.087       .  S
C611        C612   1.337       .  D
C611        H865   1.088       .  S
C612        H614   1.086       .  S
H613        C863   1.086       .  S
C615        C616   1.337       .  D
C615        H869   1.088       .  S
C616        H618   1.086       .  S
H617        C867   1.087       .  S
C619        C761   1.472       .  S
C619        C620   1.353       .  D
C619        H621   1.086       .  S
C620        H874   1.086       .  S
H622        C872   1.087       .  S
C623        C759   1.484       .  S
C623        C624   1.351       .  D
C623        H625   1.086       .  S
C624        H878   1.087       .  S
H626        C876   1.088       .  S
C627        C628   1.339       .  D
C627        H881   1.087       .  S
C628        H630   1.086       .  S
H629        C879   1.087       .  S
C631        N632   1.371       .  A
C631        N636   1.364       .  A
C631        C754   1.487       .  S
N632        C885   1.359       .  A
C633        N884   1.344       .  A
C633        N634   1.346   1_545  A
C633       C1001   1.458       .  S
N634        C635   1.350       .  A
C635        N888   1.376       .  A
C635        C997   1.498       .  S
N636        C887   1.361       .  A
C637        N638   1.374       .  A
C637        N642   1.356       .  A
C637        C753   1.478       .  S
N638        C639   1.371       .  A
C639        N640   1.351       .  A
C639        C737   1.493       .  S
N640        C641   1.348       .  A
C641        N642   1.347       .  A
C641        C742   1.463       .  S
C643        N644   1.367       .  A
C643        N648   1.358       .  A
C643        C733   1.479       .  S
N644        C645   1.362       .  A
C645        N646   1.363       .  A
C645        C725   1.498       .  S
N646        C647   1.363       .  A
C647        N648   1.354       .  A
C647        C730   1.487       .  S
C649        N650   1.357       .  A
C649        N654   1.368       .  A
C649        C734   1.479       .  S
N650        C651   1.353       .  A
C651        N652   1.363       .  A
C651        C717   1.485       .  S
N652        C653   1.362       .  A
C653        N654   1.363       .  A
C653        C722   1.500       .  S
O655       Zr667   2.444       .  S
O655        C657   1.285       .  A
O656        C657   1.282       .  A
C657        C750   1.464       .  S
O658        C660   1.299       .  A
O659       Zr946   2.402   1_545  S
O659        C660   1.283       .  A
C660        C726   1.489       .  S
O661       Zr670   2.488       .  S
O661        C663   1.297       .  A
O662       Zr945   2.390   1_545  S
O662        C663   1.280       .  A
C663        C729   1.479       .  S
O664        C666   1.278       .  A
O665        C666   1.293       .  A
C666        C746   1.472       .  S
Zr667       O925   2.368       .  S
Zr667       O800   2.382       .  S
Zr667       O699   2.366       .  S
Zr667       O920   2.433       .  S
O668       Zr919   2.436   1_545  S
O668        H711   0.990       .  S
Zr670       O698   2.384       .  S
O671        H715   0.990       .  S
O673       Zr919   2.364   1_545  S
O674       Zr793   2.384   1_545  S
O674        H701   0.965       .  S
O675        C677   1.298       .  A
O676       Zr694   2.379       .  S
O676        C677   1.278       .  A
C677        C718   1.476       .  S
O678       Zr690   2.427       .  S
O678        C680   1.285       .  A
O679       Zr693   2.387       .  S
O679        C680   1.279       .  A
C680        C741   1.456       .  S
O681        C683   1.284       .  A
O682       Zr694   2.458       .  S
O682        C683   1.293       .  A
C683        C738   1.483       .  S
O684       Zr687   2.493       .  S
O684        C686   1.297       .  A
O685       Zr693   2.415       .  S
O685        C686   1.285       .  A
C686        C721   1.492       .  S
Zr687       O696   2.374       .  S
Zr687       O688   2.436       .  S
O688        H713   0.990       .  S
Zr690       O696   2.369       .  S
Zr690       O826   2.377       .  S
Zr690       O950   2.366       .  S
Zr690       O691   2.434       .  S
Zr690       O944   2.433       .  S
O691        H707   0.990       .  S
O692       Zr942   2.435   1_545  S
O692        H716   0.990       .  S
Zr693       O914   2.397       .  S
Zr693       O696   2.368       .  S
Zr693       O950   2.376       .  S
Zr694       O911   2.396       .  S
Zr694       O695   2.382       .  S
Zr694       O952   2.373       .  S
O695        H703   0.965       .  S
O698       Zr942   2.371   1_545  S
O698       Zr945   2.375   1_545  S
O698        H702   0.967       .  S
O699        H704   0.967       .  S
O700       Zr816   2.379   1_546  S
O700       Zr946   2.374   1_545  S
C717        C718   1.339       .  D
C717        H719   1.086       .  S
C718        H720   1.088       .  S
C721        C722   1.351       .  D
C721        H723   1.087       .  S
C725        C726   1.348       .  D
C725        H727   1.086       .  S
C729        C730   1.341       .  D
C729        H731   1.087       .  S
C730        H732   1.086       .  S
C733        C734   1.340       .  D
C734        H736   1.087       .  S
C737        C738   1.361       .  D
C737        H991   1.086       .  S
C738        H740   1.086       .  S
H739        C989   1.087       .  S
C741        C742   1.339       .  D
C741        H995   1.087       .  S
C742        H744   1.087       .  S
H743        C993   1.088       .  S
C745        C887   1.466       .  S
C745        C746   1.331       .  D
C745        H747   1.087       .  S
C746       H1000   1.087       .  S
H748        C998   1.086       .  S
C749        C885   1.481       .  S
C749        C750   1.346       .  D
C749        H751   1.086       .  S
C750       H1004   1.088       .  S
H752       C1002   1.087       .  S
C753        C754   1.340       .  D
C753       H1007   1.087       .  S
C754        H756   1.086       .  S
H755       C1005   1.086       .  S
C757        N758   1.373       .  A
C757        N762   1.365       .  A
C757        C880   1.489       .  S
C759        N760   1.348       .  A
N760        C761   1.347       .  A
C763        N764   1.374       .  A
C763        N768   1.357       .  A
C763        C879   1.479       .  S
N764        C765   1.371       .  A
C765        N766   1.351       .  A
C765        C863   1.490       .  S
N766        C767   1.347       .  A
C767        N768   1.348       .  A
C767        C868   1.466       .  S
C769        N770   1.363       .  A
C769        N774   1.362       .  A
C769        C859   1.479       .  S
N770        C771   1.357       .  A
C771        N772   1.363       .  A
C771        C851   1.490       .  S
N772        C773   1.362       .  A
C773        N774   1.359       .  A
C773        C856   1.493       .  S
C775        N776   1.362       .  A
C775        N780   1.363       .  A
C775        C860   1.478       .  S
N776        C777   1.358       .  A
C777        N778   1.362       .  A
C777        C843   1.492       .  S
N778        C779   1.362       .  A
C779        N780   1.358       .  A
C779        C848   1.491       .  S
O781       Zr793   2.453   1_554  S
O781        C783   1.287       .  A
O782        C783   1.282       .  A
C783        C876   1.466   1_565  S
O784       Zr922   2.494       .  S
O784        C786   1.297       .  A
O785        C786   1.280       .  A
C786        C852   1.480       .  S
O787       Zr796   2.489       .  S
O787        C789   1.297       .  A
O788        C789   1.282       .  A
C789        C855   1.485       .  S
O790       Zr919   2.408       .  S
O790        C792   1.279       .  A
O791        C792   1.292       .  A
C792        C872   1.474       .  S
Zr793       O916   2.431       .  S
Zr793       O949   2.383       .  S
Zr793       O825   2.372   1_556  S
Zr793       O921   2.434       .  S
O794        H837   0.990       .  S
O795       Zr919   2.437       .  S
O795        H962   0.990       .  S
O795        H966   0.990       .  S
Zr796       O910   2.489   1_554  S
Zr796       O824   2.384       .  S
Zr796       O952   2.382   1_554  S
Zr796       O924   2.434   1_554  S
O797        H964   0.990       .  S
O797        H841   0.991       .  S
O798       Zr922   2.435       .  S
O798        H957   0.990       .  S
O800        H827   0.965       .  S
O801       Zr939   2.495       .  S
O801        C803   1.298       .  A
O802       Zr820   2.394       .  S
O802        C803   1.281       .  A
C803        C844   1.482       .  S
O804       Zr816   2.425       .  S
O804        C806   1.285       .  A
O805       Zr819   2.395       .  S
O805        C806   1.280       .  A
C806        C867   1.459       .  S
O807       Zr942   2.426       .  S
O807        C809   1.283       .  A
O808       Zr820   2.455       .  S
O808        C809   1.293       .  A
C809        C864   1.479       .  S
O810       Zr813   2.490       .  S
O810        C812   1.296       .  A
O811       Zr819   2.400       .  S
O811        C812   1.282       .  A
C812        C847   1.484       .  S
Zr813       O927   2.484   1_554  S
Zr813       O947   2.387   1_554  S
Zr813       O822   2.377       .  S
Zr813       O814   2.435       .  S
O814        H960   0.990   1_554  S
O814        H839   0.991       .  S
O815        H961   0.990   1_554  S
Zr816       O933   2.400   1_554  S
Zr816       O822   2.365       .  S
Zr816       O947   2.376   1_554  S
Zr816       O817   2.434       .  S
O817        H833   0.990       .  S
O818        H958   0.990       .  S
O818        H842   0.990       .  S
Zr819       O822   2.364       .  S
Zr820       O821   2.385       .  S
O821       Zr939   2.383       .  S
O821       Zr942   2.382       .  S
O821        H829   0.965       .  S
O823       Zr919   2.373       .  S
O824        H828   0.968       .  S
O825        H830   0.966       .  S
O826       Zr922   2.383       .  S
H831        O924   0.990   1_554  S
H832        O944   0.991       .  S
H834        O940   0.990       .  S
H835        O941   0.990       .  S
H836        O921   0.990   1_554  S
H838        O923   0.990       .  S
H840        O921   0.990       .  S
C843        C844   1.344       .  D
C843        H845   1.086       .  S
C844        H846   1.087   1_655  S
C847        C848   1.345       .  D
C847        H849   1.087   1_655  S
C851        C852   1.343       .  D
C851        H853   1.086       .  S
C855        C856   1.345       .  D
C855        H857   1.087       .  S
C856        H858   1.086       .  S
C859        C860   1.346       .  D
C860        H862   1.086       .  S
C863        C864   1.361       .  D
C864        H866   1.086       .  S
C867        C868   1.341       .  D
C868        H870   1.087       .  S
C871        C872   1.333       .  D
C871        H873   1.088       .  S
C875        C876   1.348   1_565  D
C875        H877   1.086       .  S
C879        C880   1.341       .  D
C880        H882   1.086       .  S
C883        N884   1.353   1_565  A
C883        N888   1.379       .  A
C883       C1006   1.481       .  S
C885        N886   1.349       .  A
N886        C887   1.342       .  A
C889        N890   1.361       .  A
C889        N894   1.376       .  A
C889       C1005   1.489       .  S
N890        C891   1.358       .  A
C891        N892   1.340       .  A
C891        C989   1.461       .  S
N892        C893   1.349       .  A
C893        N894   1.365       .  A
C893        C994   1.488       .  S
C895        N896   1.363       .  A
C895        N900   1.362       .  A
C895        C985   1.478       .  S
N896        C897   1.358       .  A
C897        N898   1.362       .  A
C897        C977   1.491       .  S
N898        C899   1.362       .  A
C899        N900   1.358       .  A
C899        C982   1.492       .  S
C901        N902   1.362       .  A
C901        N906   1.363       .  A
C901        C986   1.479       .  S
N902        C903   1.359       .  A
C903        N904   1.362       .  A
C903        C969   1.490       .  S
N904        C905   1.362       .  A
C905        N906   1.356       .  A
C905        C974   1.489       .  S
O907       Zr919   2.417       .  S
O907        C909   1.284       .  A
O908        C909   1.279       .  A
C909       C1002   1.455   1_565  S
O910        C912   1.296       .  A
O911        C912   1.281       .  A
C912        C978   1.482       .  S
O913       Zr922   2.493       .  S
O913        C915   1.298       .  A
O914        C915   1.281       .  A
C915        C981   1.483       .  S
O916        C918   1.284       .  A
O917        C918   1.296       .  A
C918        C998   1.486       .  S
Zr919       O951   2.367       .  S
O920        H963   0.990       .  S
Zr922       O950   2.383       .  S
O923        H967   0.990       .  S
O926        H953   0.967       .  S
O927        C929   1.296       .  A
O928       Zr946   2.400       .  S
O928        C929   1.282       .  A
C929        C970   1.481       .  S
O930       Zr942   2.447       .  S
O930        C932   1.286       .  A
O931       Zr945   2.417       .  S
O931        C932   1.285       .  A
C932        C993   1.470       .  S
O933        C935   1.277       .  A
O934       Zr946   2.438       .  S
O934        C935   1.291       .  A
C935        C990   1.467       .  S
O936       Zr939   2.496       .  S
O936        C938   1.298       .  A
O937       Zr945   2.387       .  S
O937        C938   1.279       .  A
C938        C973   1.480       .  S
Zr939       O948   2.379       .  S
Zr939       O940   2.433       .  S
O940        H965   0.990       .  S
Zr942       O948   2.376       .  S
Zr942       O943   2.434       .  S
O943        H959   0.990       .  S
O944        H968   0.989       .  S
Zr945       O948   2.370       .  S
Zr946       O947   2.380       .  S
O947        H955   0.967       .  S
O950        H954   0.967       .  S
O951        H956   0.966       .  S
C969        C970   1.345       .  D
C969        H971   1.086       .  S
C970        H972   1.087       .  S
C973        C974   1.342       .  D
C973        H975   1.088       .  S
C977        C978   1.345       .  D
C977        H979   1.086       .  S
C981        C982   1.344       .  D
C981        H983   1.087       .  S
C982        H984   1.086       .  S
C985        C986   1.346       .  D
C986        H988   1.086       .  S
C989        C990   1.330       .  D
C990        H992   1.087       .  S
C993        C994   1.352       .  D
C994        H996   1.086       .  S
C997        C998   1.366       .  D
C997        H999   1.086       .  S
C1001      C1002   1.339       .  D
C1001      H1003   1.087       .  S
C1005      C1006   1.336       .  D
C1006      H1008   1.087       .  S
