geometry optimzed in LAMMPS
_audit_creation_date              2020-11-30 
_audit_creation_method            'lammps2cif' 
_symmetry_space_group_name_H-M    'P1' 
_symmetry_Int_Tables_number       1 
_symmetry_cell_setting            triclinic 
loop_ 
_symmetry_equiv_pos_as_xyz 
  x,y,z 
_cell_length_a                    27.69238427974198 
_cell_length_b                    27.68893150166444 
_cell_length_c                    70.10455865732162 
_cell_angle_alpha                 92.40645326212514 
_cell_angle_beta                  88.45966000987275 
_cell_angle_gamma                 88.67419425556533 
loop_ 
_atom_site_label 
_atom_site_type_symbol 
_atom_site_fract_x 
_atom_site_fract_y 
_atom_site_fract_z 
_atom_site_charge 
C1          C  0.54838284  0.50168499  0.69698703     0.00820
C2          C  0.04424752  0.04218472  0.70927730     0.00820
C3          C  0.04795730  0.25386999  0.69884428     0.00820
C4          C  0.04154801  0.29113892  0.71251199     0.00820
C5          C  0.27655190  0.00737796  0.68934207     0.00820
C6          C  0.28012403  0.04620797  0.70269867     0.00820
C7          C  0.28046275  0.26009855  0.69332154     0.00820
C8          C  0.27731181  0.29766344  0.70743725     0.00820
C9          C  0.04193248  0.02733338  0.80239859     0.00820
C10         C  0.00453481  0.02555160  0.78976603     0.00820
C11         C  0.00091573  0.26997647  0.79329919     0.00820
C12         C  0.03789728  0.27327237  0.80650794     0.00820
C13         C  0.29365044  0.03242889  0.78540905     0.00820
C14         C  0.25492355  0.03871352  0.79841824     0.00820
C15         C  0.25148281  0.28143670  0.79087442     0.00820
C16         C  0.28730102  0.28092265  0.80465041     0.00820
C17         C  0.03510044  0.50648684  0.30412527     0.00820
C18         C  0.03398763  0.54261830  0.29089175     0.00820
C19         C  0.03533265  0.25623090  0.30597316     0.00820
C20         C  0.03790267  0.29219671  0.29267444     0.00820
C21         C  0.27190218  0.99292738  0.28865224     0.00820
C22         C  0.26991331  0.02999136  0.30267321     0.00820
C23         C  0.27495017  0.24313855  0.29167773     0.00820
C24         C  0.26873732  0.28310511  0.30435327     0.00820
O25         O  0.51124451  0.55450796  0.39648539    -0.72680
O26         O  0.51436403  0.54355810  0.45354486    -0.73660
O27         O  0.57427051  0.08367262  0.42550064    -0.62280
O28         O  0.44998866  0.51482867  0.42518890    -0.70690
O29         O  0.99247533  0.44591255  0.42134444    -0.70250
O30         O  0.11634494  0.01493043  0.42082684    -0.61500
O31         O  0.05819466  0.47549167  0.44934498    -0.74010
O32         O  0.05208198  0.48473850  0.39328516    -0.72790
Cu33       Cu  0.51088309  0.55164465  0.42527616     1.04560
Cu34       Cu  0.05587704  0.47772733  0.42105871     1.04330
C35         C  0.53247494  0.52136815  0.38590598     0.93510
C36         C  0.53761349  0.50804182  0.46032197     0.92650
C37         C  0.61454108  0.06056810  0.42304634     0.84800
C38         C  0.45211330  0.46905441  0.42331337     0.91070
O39         O  0.49959166  0.23872238  0.39625000    -0.72680
O40         O  0.49591928  0.22285480  0.45278975    -0.73660
O41         O  0.43579669  0.26869805  0.42692511    -0.62280
O42         O  0.56003025  0.19345618  0.42217479    -0.70690
O43         O  0.10190454  0.26016738  0.42599215    -0.70250
O44         O  0.97839733  0.33515069  0.43027004    -0.61500
O45         O  0.03816777  0.28942957  0.45662398    -0.74010
O46         O  0.04233449  0.30503862  0.39931143    -0.72790
Cu47       Cu  0.49668334  0.22879285  0.42441793     1.04560
Cu48       Cu  0.04152372  0.29992292  0.42822422     1.04330
C49         C  0.02146661  0.27358328  0.38868784     0.93510
C50         C  0.51653878  0.25361315  0.46369413     0.92650
C51         C  0.93787672  0.31428769  0.42909360     0.84800
C52         C  0.10024243  0.21482130  0.42339152     0.91070
O53         O  0.29193459  0.95692562  0.38972959    -0.72680
O54         O  0.32691526  0.00636800  0.44214490    -0.73660
O55         O  0.26045961  0.94122969  0.42876228    -0.62280
O56         O  0.35937866  0.01947607  0.40344130    -0.70690
O57         O  0.30369040  0.07764230  0.40082817    -0.70250
O58         O  0.20713277  0.00198092  0.42844241    -0.61500
O59         O  0.27397322  0.06719443  0.44009404    -0.74010
O60         O  0.23449539  0.01421784  0.38960886    -0.72790
Cu61       Cu  0.31150758  0.97869994  0.41610765     1.04560
Cu62       Cu  0.25310238  0.04227134  0.41467963     1.04330
C63         C  0.26071824  0.98159523  0.38086142     0.93510
C64         C  0.30303739  0.04244647  0.44979235     0.92650
C65         C  0.21910556  0.46017040  0.43339915     0.84800
C66         C  0.34607642  0.05982578  0.39715259     0.91070
O67         O  0.23258467  0.24881286  0.39391253    -0.72680
O68         O  0.27535191  0.20957579  0.44546121    -0.73660
O69         O  0.19923959  0.26597691  0.43321456    -0.62280
O70         O  0.30845244  0.19327125  0.40649434    -0.70690
O71         O  0.35501923  0.25736585  0.40795881    -0.70250
O72         O  0.24682499  0.32904483  0.43517479    -0.61500
O73         O  0.32295249  0.27279355  0.44691035    -0.74010
O74         O  0.27956314  0.31272535  0.39605744    -0.72790
Cu75       Cu  0.25223130  0.22710993  0.41969127     1.04560
Cu76       Cu  0.30241378  0.29528638  0.42166164     1.04330
C77         C  0.25351919  0.28408479  0.38624198     0.93510
C78         C  0.30382036  0.23684704  0.45477615     0.92650
C79         C  0.20701424  0.30883641  0.43923741     0.84800
C80         C  0.34776202  0.21421811  0.40227686     0.91070
O81         O  0.99902774  0.03559603  0.10562102    -0.72680
O82         O  0.00931742  0.04176249  0.04877674    -0.73660
O83         O  0.46840111  0.97829011  0.07417713    -0.62280
O84         O  0.04171551  0.09871896  0.08034720    -0.70690
O85         O  0.10930976  0.05444255  0.08107492    -0.70250
O86         O  0.53656277  0.93469684  0.07183157    -0.61500
O87         O  0.07985018  0.00168456  0.04820901    -0.74010
O88         O  0.06498483  0.98846378  0.10480510    -0.72790
Cu89       Cu  0.00218185  0.04017196  0.07722274     1.04560
Cu90       Cu  0.07506639  0.99340166  0.07649510     1.04330
C91         C  0.03049864  0.01085571  0.11419790     0.93510
C92         C  0.04563782  0.02237699  0.03955011     0.92650
C93         C  0.49091720  0.93759893  0.07179468     0.84800
C94         C  0.08718151  0.09533015  0.08199309     0.91070
O95         O  0.99658710  0.28174173  0.10838790    -0.72680
O96         O  0.01900493  0.30621260  0.05303449    -0.73660
O97         O  0.47014148  0.23612032  0.07304405    -0.62280
O98         O  0.04454201  0.35065780  0.08840624    -0.70690
O99         O  0.11094136  0.30407311  0.08781470    -0.70250
O100        O  0.53675212  0.19031453  0.07164594    -0.61500
O101        O  0.08565150  0.25990580  0.05246471    -0.74010
O102        O  0.06214753  0.23377613  0.10743263    -0.72790
Cu103      Cu  0.00507821  0.29520344  0.08070582     1.04560
Cu104      Cu  0.07618235  0.24544259  0.07986644     1.04330
C105        C  0.02744490  0.25573615  0.11677689     0.93510
C106        C  0.05492967  0.28569334  0.04394718     0.92650
C107        C  0.49187982  0.19543881  0.06943792     0.84800
C108        C  0.08942534  0.34498841  0.09082567     0.91070
O109        O  0.25384598  0.02537742  0.04492407    -0.72680
O110        O  0.25754346  0.01303155  0.10205341    -0.73660
O111        O  0.21841014  0.08077322  0.07746844    -0.62280
O112        O  0.29168215  0.95720595  0.06950148    -0.70690
O113        O  0.35917674  0.99894447  0.07041887    -0.70250
O114        O  0.28532441  0.12262591  0.07945353    -0.61500
O115        O  0.32521285  0.05398983  0.10336540    -0.74010
O116        O  0.32004313  0.06884810  0.04621390    -0.72790
Cu117      Cu  0.25297807  0.01784658  0.07345071     1.04560
Cu118      Cu  0.32492714  0.06242005  0.07481624     1.04330
C119        C  0.28659610  0.04923451  0.03654559     0.93510
C120        C  0.29159018  0.03142850  0.11177471     0.92650
C121        C  0.23970222  0.12086944  0.07993194     0.84800
C122        C  0.33735682  0.95887289  0.06893675     0.91070
O123        O  0.24110142  0.28703870  0.05442971    -0.72680
O124        O  0.27159360  0.25479521  0.10786371    -0.73660
O125        O  0.22017465  0.32906989  0.09160847    -0.62280
O126        O  0.29337405  0.21403228  0.07088137    -0.70690
O127        O  0.35899414  0.25837459  0.07007344    -0.70250
O128        O  0.28465214  0.37479836  0.09010280    -0.61500
O129        O  0.33578666  0.30147485  0.10714167    -0.74010
O130        O  0.30665934  0.33158509  0.05295153    -0.72790
Cu131      Cu  0.25419838  0.26985941  0.08124152     1.04560
Cu132      Cu  0.32392510  0.31803829  0.07994714     1.04330
C133        C  0.27046597  0.31233866  0.04499745     0.93510
C134        C  0.30679106  0.27481193  0.11620665     0.92650
C135        C  0.24059581  0.36954322  0.09457661     0.84800
C136        C  0.33808162  0.21821180  0.06725115     0.91070
C137        C  0.01607617  0.01890923  0.20893502     0.00820
C138        C  0.05310901  0.01719766  0.19520424     0.00820
C139        C  0.02051073  0.26234638  0.21069857     0.00820
C140        C  0.05800676  0.26090273  0.19719847     0.00820
C141        C  0.30294329  0.01701635  0.20735988     0.00820
C142        C  0.26733076  0.01825644  0.19382037     0.00820
C143        C  0.27303117  0.26200754  0.19640097     0.00820
C144        C  0.30790223  0.25986612  0.21015711     0.00820
O145        O  0.99149380  0.01255568  0.89301763    -0.72680
O146        O  0.00855322  0.00060783  0.94902019    -0.73660
O147        O  0.46032816  0.06624798  0.92630201    -0.62280
O148        O  0.03951037  0.94707054  0.91507692    -0.70690
O149        O  0.10524968  0.99067713  0.91464820    -0.70250
O150        O  0.52699271  0.10857429  0.92427971    -0.61500
O151        O  0.07405511  0.04486722  0.94781851    -0.74010
O152        O  0.05836105  0.05523108  0.89176145    -0.72790
Cu153      Cu  0.99763148  0.00504568  0.92099406     1.04560
Cu154      Cu  0.06847579  0.05131228  0.91962948     1.04330
C155        C  0.02301654  0.03517376  0.88353036     0.93510
C156        C  0.04313462  0.02171982  0.95743181     0.92650
C157        C  0.48166371  0.10650894  0.92635218     0.84800
C158        C  0.08483489  0.94994433  0.91309344     0.91070
O159        O  0.99142175  0.26009343  0.89871678    -0.72680
O160        O  0.00702006  0.26432653  0.95571553    -0.73660
O161        O  0.46078488  0.32332057  0.92964471    -0.62280
O162        O  0.03662053  0.20113117  0.92539576    -0.70690
O163        O  0.10293190  0.24246833  0.92084274    -0.70250
O164        O  0.52823896  0.36462055  0.92773398    -0.61500
O165        O  0.07511508  0.30445416  0.95222208    -0.74010
O166        O  0.05670104  0.30445194  0.89603094    -0.72790
Cu167      Cu  0.99646522  0.26076127  0.92747826     1.04560
Cu168      Cu  0.06810672  0.30535711  0.92405927     1.04330
C169        C  0.02175407  0.28221690  0.88839455     0.93510
C170        C  0.04368532  0.28492149  0.96281473     0.92650
C171        C  0.48264816  0.36326157  0.92940792     0.84800
C172        C  0.08175043  0.20230528  0.92246616     0.91070
O173        O  0.24897477  0.08370437  0.88899044    -0.72680
O174        O  0.25292001  0.08762373  0.94639359    -0.73660
O175        O  0.28908224  0.14453341  0.91696538    -0.62280
O176        O  0.21204371  0.02665828  0.91791537    -0.70690
O177        O  0.27941946  0.98203416  0.91421104    -0.70250
O178        O  0.35629144  0.09990491  0.91628185    -0.61500
O179        O  0.31827498  0.03957402  0.94430322    -0.74010
O180        O  0.31775838  0.04065806  0.88718662    -0.72790
Cu181      Cu  0.24842810  0.08729457  0.91763566     1.04560
Cu182      Cu  0.32042774  0.03909526  0.91548672     1.04330
C183        C  0.28236883  0.06094300  0.87912953     0.93510
C184        C  0.28597323  0.06337364  0.95437828     0.92650
C185        C  0.33461022  0.14116357  0.91691914     0.84800
C186        C  0.23376726  0.98570825  0.91559334     0.91070
O187        O  0.31107654  0.28416580  0.89651997    -0.72680
O188        O  0.30954018  0.29489860  0.95427450    -0.73660
O189        O  0.27358089  0.23228213  0.92683104    -0.62280
O190        O  0.35011479  0.34868869  0.92482190    -0.70690
O191        O  0.28335752  0.39406945  0.92683471    -0.70250
O192        O  0.20575778  0.27546418  0.92476404    -0.61500
O193        O  0.24035303  0.33696945  0.95406662    -0.74010
O194        O  0.24651602  0.33282901  0.89645077    -0.72790
Cu195      Cu  0.31357529  0.28869514  0.92555342     1.04560
Cu196      Cu  0.24171822  0.33659656  0.92545426     1.04330
C197        C  0.27811882  0.30576456  0.88733935     0.93510
C198        C  0.27367170  0.31628567  0.96319862     0.92650
C199        C  0.22821029  0.23497718  0.92581003     0.84800
C200        C  0.32895057  0.39006146  0.92639851     0.91070
O201        O  0.07351127  0.53605232  0.60680468    -0.72680
O202        O  0.07713392  0.52738089  0.55002690    -0.73660
O203        O  0.01536324  0.07163113  0.57831756    -0.62280
O204        O  0.13456468  0.49125048  0.57928591    -0.70690
O205        O  0.59102111  0.42584136  0.57598337    -0.70250
O206        O  0.47236282  0.00592650  0.58173989    -0.61500
O207        O  0.52676440  0.46607691  0.55041712    -0.74010
O208        O  0.53513544  0.46644952  0.60695412    -0.72790
Cu209      Cu  0.07673736  0.53389863  0.57855535     1.04560
Cu210      Cu  0.52985903  0.46351792  0.57876669     1.04330
C211        C  0.55383265  0.50233547  0.61580172     0.93510
C212        C  0.55101440  0.49669929  0.54130275     0.92650
C213        C  0.47501791  0.05118153  0.58071911     0.84800
C214        C  0.63195348  0.44596783  0.57681477     0.91070
O215        O  0.05364043  0.22397063  0.60987467    -0.72680
O216        O  0.03652145  0.20537544  0.55375278    -0.73660
O217        O  0.10241030  0.25159366  0.57731577    -0.62280
O218        O  0.98513092  0.17839714  0.58713452    -0.70690
O219        O  0.44231153  0.24673408  0.59081081    -0.70250
O220        O  0.55775345  0.31861759  0.57567561    -0.61500
O221        O  0.48771559  0.27007482  0.55485717    -0.74010
O222        O  0.51345459  0.29442057  0.61014393    -0.72790
Cu223      Cu  0.04582316  0.21217005  0.58203462     1.04560
Cu224      Cu  0.49859348  0.28465019  0.58283800     1.04330
C225        C  0.53729575  0.26238652  0.61870789     0.93510
C226        C  0.51059931  0.23616603  0.54534779     0.92650
C227        C  0.59860180  0.29652916  0.57496741     0.84800
C228        C  0.44486608  0.20106808  0.59046677     0.91070
O229        O  0.25580868  0.98796433  0.59534260    -0.72680
O230        O  0.27084050  0.99632401  0.53745857    -0.73660
O231        O  0.32312909  0.45205783  0.56614979    -0.62280
O232        O  0.20282978  0.02768918  0.56477138    -0.70690
O233        O  0.24184766  0.09483248  0.57126193    -0.70250
O234        O  0.36604306  0.51839256  0.56879949    -0.61500
O235        O  0.30975372  0.06494874  0.54209259    -0.74010
O236        O  0.30084504  0.05264685  0.59858648    -0.72790
Cu237      Cu  0.26173311  0.98859421  0.56584405     1.04560
Cu238      Cu  0.30594780  0.06023373  0.57033025     1.04330
C239        C  0.27692209  0.01922512  0.60614126     0.93510
C240        C  0.29207164  0.03300251  0.53090296     0.92650
C241        C  0.36349302  0.47277094  0.56707469     0.84800
C242        C  0.20246244  0.07256153  0.56844539     0.91070
O243        O  0.27490372  0.31028539  0.60145692    -0.72680
O244        O  0.28455443  0.29287207  0.54353783    -0.73660
O245        O  0.22054786  0.26476876  0.57246389    -0.62280
O246        O  0.33894507  0.33970189  0.57192819    -0.70690
O247        O  0.38164507  0.27126026  0.56871316    -0.70250
O248        O  0.26319493  0.19942171  0.57934699    -0.61500
O249        O  0.31768030  0.21993189  0.54663045    -0.74010
O250        O  0.32719774  0.24902414  0.60268296    -0.72790
Cu251      Cu  0.27806299  0.30461384  0.57226994     1.04560
Cu252      Cu  0.32398269  0.23276741  0.57451091     1.04330
C253        C  0.30028129  0.28163142  0.61126377     0.93510
C254        C  0.30175873  0.25277207  0.53616740     0.92650
C255        C  0.22298115  0.22071059  0.57647441     0.84800
C256        C  0.37936062  0.31700041  0.56959363     0.91070
C257        C  0.41864837  0.42293897  0.58410297    -0.21050
C258        C  0.40631022  0.44205792  0.56663559    -0.09090
C259        C  0.41739984  0.41543702  0.54956620     0.29770
C260        C  0.42841581  0.36630296  0.55047349    -0.21050
C261        C  0.42278296  0.34522541  0.56817126    -0.09100
C262        C  0.43006816  0.37395075  0.58470034     0.29780
F263        F  0.43031026  0.35357187  0.60196837    -0.19620
H264        H  0.41092385  0.44335652  0.59741424     0.18140
H265        H  0.42735743  0.34398354  0.53744459     0.18150
F266        F  0.40600891  0.43343713  0.53249743    -0.19610
C267        C  0.16488049  0.17708471  0.55773257    -0.21050
C268        C  0.18033473  0.19226441  0.57587925    -0.09090
C269        C  0.16714429  0.16636090  0.59187591     0.29770
C270        C  0.15005680  0.11986000  0.58882215    -0.21050
C271        C  0.15640284  0.09925455  0.57030322    -0.09100
C272        C  0.14953162  0.12978611  0.55515624     0.29780
F273        F  0.14546348  0.11075821  0.53713360    -0.19620
H274        H  0.17261161  0.19801178  0.54533181     0.18140
H275        H  0.14865712  0.09668057  0.60088714     0.18150
F276        F  0.18023294  0.18137358  0.60962322    -0.19610
C277        C  0.18206702  0.38803606  0.59062945    -0.21050
C278        C  0.67566378  0.41543378  0.57452584    -0.09090
C279        C  0.67638027  0.38982288  0.55679639     0.29770
C280        C  0.65423281  0.34497152  0.55618977    -0.21050
C281        C  0.64141964  0.32465837  0.57352640    -0.09100
C282        C  0.16060348  0.34302752  0.59060437     0.29780
F283        F  0.15085042  0.32207573  0.60740332    -0.19620
H284        H  0.18907250  0.40580664  0.60425553     0.18140
H285        H  0.64163085  0.32986880  0.54276836     0.18150
F286        F  0.68048670  0.41419571  0.54046425    -0.19610
C287        C  0.91862161  0.09461934  0.60265889    -0.21050
C288        C  0.43201746  0.08081638  0.58376901    -0.09090
C289        C  0.41457787  0.10734955  0.56871434     0.29770
C290        C  0.39322705  0.15256532  0.57303463    -0.21050
C291        C  0.40097657  0.17295017  0.59132617    -0.09100
C292        C  0.90014865  0.14137801  0.60643602     0.29780
F293        F  0.89779972  0.15916862  0.62475020    -0.19620
H294        H  0.92988905  0.07314196  0.61440271     0.18140
H295        H  0.38814247  0.17578214  0.56120289     0.18150
F296        F  0.42536472  0.09348859  0.55024887    -0.19610
C297        C  0.38790691  0.43856475  0.91211165    -0.21050
C298        C  0.35878768  0.43248273  0.92839655    -0.09090
C299        C  0.38057676  0.43590032  0.94621073     0.29770
C300        C  0.42866312  0.42051085  0.94704422    -0.21050
C301        C  0.45377891  0.40743778  0.92996193    -0.09100
C302        C  0.43567608  0.42214049  0.91254088     0.29780
F303        F  0.45973520  0.41039609  0.89578416    -0.19620
H304        H  0.37145697  0.44086958  0.89831082     0.18140
H305        H  0.44284101  0.41050186  0.96062380     0.18150
F306        F  0.35282979  0.43676567  0.96246546    -0.19610
C307        C  0.18642679  0.17387839  0.90713041    -0.21050
C308        C  0.20139085  0.19109137  0.92506530    -0.09090
C309        C  0.17840966  0.17566381  0.94171936     0.29770
C310        C  0.13357525  0.15421296  0.93998455    -0.21050
C311        C  0.11133438  0.15792125  0.92236115    -0.09100
C312        C  0.14138607  0.15283138  0.90601100     0.29780
F313        F  0.12174645  0.14588961  0.88863437    -0.19620
H314        H  0.20543498  0.18333382  0.89414697     0.18140
H315        H  0.11168095  0.15020134  0.95283332     0.18150
F316        F  0.19441925  0.18908976  0.95925090    -0.19610
C317        C  0.37926211  0.18816121  0.93822940    -0.21050
C318        C  0.36329135  0.18442019  0.91940521    -0.09090
C319        C  0.39825613  0.18799995  0.90479746     0.29770
C320        C  0.44350616  0.16738394  0.90782801    -0.21050
C321        C  0.45306732  0.15050483  0.92596255    -0.09100
C322        C  0.42375611  0.16603945  0.94171246     0.29780
F323        F  0.43400921  0.65264661  0.95952675    -0.19620
H324        H  0.35308877  0.69267540  0.94993398     0.18140
H325        H  0.46724043  0.15764106  0.89565200     0.18150
F326        F  0.38466543  0.19403226  0.88660421    -0.19610
C327        C  0.13985472  0.89930973  0.92740098    -0.21050
C328        C  0.11567860  0.90652831  0.91041429    -0.09090
C329        C  0.14466366  0.90780066  0.89372145     0.29770
C330        C  0.18932949  0.92969770  0.89526143    -0.21050
C331        C  0.20517527  0.94295325  0.91350869    -0.09100
C332        C  0.18298240  0.92367091  0.92966301     0.29780
F333        F  0.19857367  0.93462839  0.94747163    -0.19620
H334        H  0.11943921  0.89090544  0.94018647     0.18140
H335        H  0.20737446  0.94249309  0.88259489     0.18150
F336        F  0.12414270  0.90515682  0.87639803    -0.19610
C337        C  0.38809011  0.29751032  0.19903227    -0.21050
C338        C  0.36250617  0.25741535  0.20542570    -0.09090
C339        C  0.39036209  0.21750230  0.21111220     0.29770
C340        C  0.44133590  0.21799134  0.21105386    -0.21050
C341        C  0.46707996  0.25855022  0.20545561    -0.09100
C342        C  0.43944542  0.29825819  0.19910456     0.29780
F343        F  0.46161821  0.33967584  0.19476237    -0.19620
H344        H  0.36825486  0.32974130  0.19528501     0.18140
H345        H  0.46081861  0.18741214  0.21655137     0.18150
F346        F  0.36777991  0.17895796  0.21807950    -0.19610
C347        C  0.14094604  0.22127033  0.19236174    -0.21050
C348        C  0.11261999  0.25984610  0.20073695    -0.09090
C349        C  0.13809114  0.29858461  0.20931769     0.29770
C350        C  0.18982073  0.29861971  0.20890828    -0.21050
C351        C  0.21781929  0.26028878  0.19982346    -0.09100
C352        C  0.19182869  0.22139856  0.19181119     0.29780
F353        F  0.21560368  0.18278415  0.18321578    -0.19620
H354        H  0.12342667  0.19080496  0.18561129     0.18140
H355        H  0.20795283  0.32961720  0.21500275     0.18150
F356        F  0.11319622  0.33758051  0.21717452    -0.19610
C357        C  0.38593276  0.48712943  0.19264254    -0.21050
C358        C  0.35726140  0.02244165  0.20316918    -0.09090
C359        C  0.38208580  0.05815532  0.21368447     0.29770
C360        C  0.43291241  0.05846398  0.21393595    -0.21050
C361        C  0.46190193  0.02199397  0.20439564    -0.09100
C362        C  0.43735155  0.48635202  0.19346699     0.29780
F363        F  0.46248107  0.44842358  0.18492191    -0.19620
H364        H  0.36845218  0.45780669  0.18505692     0.18140
H365        H  0.44980074  0.08600377  0.22274305     0.18150
F366        F  0.35674148  0.09070841  0.22520484    -0.19610
C367        C  0.18482220  0.05813281  0.19095686    -0.21050
C368        C  0.21251814  0.02014273  0.19826203    -0.09090
C369        C  0.18650711  0.48238141  0.20652451     0.29770
C370        C  0.13488026  0.48242938  0.20678826    -0.21050
C371        C  0.10760526  0.01987550  0.19874214    -0.09100
C372        C  0.13391350  0.05806981  0.19109758     0.29780
F373        F  0.11016985  0.09526084  0.18314232    -0.19620
H374        H  0.20302621  0.08748534  0.18427960     0.18140
H375        H  0.11634849  0.45188490  0.21242409     0.18150
F376        F  0.21085599  0.44382987  0.21321439    -0.19610
C377        C  0.28095292  0.27294208  0.99326328    -0.21050
C378        C  0.27008945  0.31581984  0.98419031    -0.09090
C379        C  0.25509499  0.35723211  0.99532631     0.29770
C380        C  0.25482433  0.35668776  0.01531330    -0.21050
C381        C  0.26633932  0.31382758  0.02425137    -0.09100
C382        C  0.27781112  0.27166921  0.01311986     0.29780
F383        F  0.28726481  0.22954025  0.02159397    -0.19620
H384        H  0.29120294  0.24025651  0.98494592     0.18140
H385        H  0.24545907  0.38937480  0.02376786     0.18150
F386        F  0.24168373  0.39828258  0.98689171    -0.19610
C387        C  0.31106455  0.22637295  0.14529926    -0.21050
C388        C  0.30973539  0.27150486  0.13696181    -0.09090
C389        C  0.30173201  0.31363800  0.14859107     0.29770
C390        C  0.29037669  0.31023123  0.16800677    -0.21050
C391        C  0.28941700  0.26498845  0.17620508    -0.09100
C392        C  0.30275570  0.22325606  0.16498512     0.29780
F393        F  0.30614466  0.17952682  0.17293812    -0.19620
H394        H  0.31739761  0.19365443  0.13649004     0.18140
H395        H  0.28137588  0.34279201  0.17660268     0.18150
F396        F  0.30119600  0.35778918  0.14086977    -0.19610
C397        C  0.27337652  0.01400964  0.00366157    -0.21050
C398        C  0.28602793  0.05364173  0.01550942    -0.09090
C399        C  0.29833538  0.09705687  0.00702664     0.29770
C400        C  0.29747318  0.10081201  0.98711269    -0.21050
C401        C  0.28572676  0.06078604  0.97536723    -0.09100
C402        C  0.27392072  0.01742443  0.98376411     0.29780
F403        F  0.26233726  0.97865703  0.97254713    -0.19620
H404        H  0.26396937  0.98012428  0.00981109     0.18140
H405        H  0.30664669  0.13463865  0.98085008     0.18150
F406        F  0.31019772  0.13604885  0.01805734    -0.19610
C407        C  0.26581370  0.98851911  0.14070671    -0.21050
C408        C  0.29119375  0.02644830  0.13286023    -0.09090
C409        C  0.31344780  0.05979396  0.14539575     0.29770
C410        C  0.30765741  0.05632375  0.16531103    -0.21050
C411        C  0.28042865  0.01909391  0.17299569    -0.09100
C412        C  0.26054806  0.98459941  0.16041460     0.29780
F413        F  0.23489133  0.44752559  0.16719342    -0.19620
H414        H  0.24950110  0.96198768  0.13146173     0.18140
H415        H  0.32290865  0.08364361  0.17469655     0.18150
F416        F  0.33873184  0.09694654  0.13847972    -0.19610
C417        C  0.38506168  0.14981317  0.07681141    -0.21050
C418        C  0.36767482  0.17597059  0.06163383    -0.09090
C419        C  0.39534184  0.17684583  0.04459594     0.29770
C420        C  0.44389941  0.16266739  0.04483525    -0.21050
C421        C  0.46377462  0.15485357  0.06263203    -0.09100
C422        C  0.43377403  0.13713367  0.07697550     0.29780
F423        F  0.45246271  0.12513855  0.09388098    -0.19620
H424        H  0.36469477  0.14918592  0.09020356     0.18140
H425        H  0.46722627  0.17234932  0.03300219     0.18150
F426        F  0.37933687  0.20163669  0.02962900    -0.19610
C427        C  0.13693474  0.38264416  0.11550449    -0.21050
C428        C  0.11764491  0.38520028  0.09729385    -0.09090
C429        C  0.14043059  0.41299984  0.08356215     0.29770
C430        C  0.18570303  0.43105540  0.08734451    -0.21050
C431        C  0.21076647  0.41034009  0.10212454    -0.09100
C432        C  0.18354995  0.39847775  0.11837095     0.29780
F433        F  0.20624974  0.38425625  0.13417461    -0.19620
H434        H  0.12000405  0.36092466  0.12620037     0.18140
H435        H  0.20539084  0.44519495  0.07540894     0.18150
F436        F  0.12565936  0.41228759  0.06525956    -0.19610
C437        C  0.06079875  0.24336321  0.01246610    -0.21050
C438        C  0.05801789  0.28735749  0.02314784    -0.09090
C439        C  0.05272058  0.33097517  0.01382087     0.29770
C440        C  0.04954135  0.33020596  0.99393440    -0.21050
C441        C  0.05001625  0.28591457  0.98342242    -0.09100
C442        C  0.05610171  0.24251981  0.99273159     0.29780
F443        F  0.05719993  0.19942690  0.98273229    -0.19620
H444        H  0.06430379  0.20943634  0.01954022     0.18140
H445        H  0.04516229  0.36393751  0.98679329     0.18150
F446        F  0.05058078  0.37394543  0.02390422    -0.19610
C447        C  0.03769361  0.21464314  0.16711784    -0.21050
C448        C  0.04521646  0.25906812  0.17684445    -0.09090
C449        C  0.04221710  0.30202911  0.16700735     0.29770
C450        C  0.03211203  0.30051001  0.14762617    -0.21050
C451        C  0.02700685  0.25603064  0.13765862    -0.09100
C452        C  0.02968374  0.21299541  0.14748046     0.29780
F453        F  0.52556024  0.16966167  0.13799546    -0.19620
H454        H  0.53983477  0.18132319  0.17462053     0.18140
H455        H  0.03130446  0.33391097  0.14010696     0.18150
F456        F  0.05051965  0.34523507  0.17605020    -0.19610
C457        C  0.44102573  0.89109822  0.05138815    -0.21050
C458        C  0.46251301  0.89441443  0.06924732    -0.09090
C459        C  0.43366061  0.88618139  0.08543839     0.29770
C460        C  0.38517800  0.89980387  0.08490731    -0.21050
C461        C  0.36641279  0.91477863  0.06767652    -0.09100
C462        C  0.39219610  0.90382002  0.05052641     0.29780
F463        F  0.37364550  0.91583889  0.03358625    -0.19620
H464        H  0.46314883  0.89250487  0.03847397     0.18140
H465        H  0.36581027  0.40783949  0.09830982     0.18150
F466        F  0.45404368  0.38354526  0.10273723    -0.19610
C467        C  0.13528220  0.15702090  0.06737942    -0.21050
C468        C  0.11584354  0.13824127  0.08413252    -0.09090
C469        C  0.13836920  0.14759036  0.10153827     0.29770
C470        C  0.18541030  0.16458652  0.10113864    -0.21050
C471        C  0.20972649  0.16452245  0.08335301    -0.09100
C472        C  0.18213077  0.17422354  0.06743808     0.29780
F473        F  0.20449578  0.68223830  0.05041314    -0.19620
H474        H  0.11771124  0.65127332  0.05382590     0.18140
H475        H  0.20593586  0.16311395  0.11405654     0.18150
F476        F  0.11907318  0.13180444  0.11808472    -0.19610
C477        C  0.01026886  0.99673181  0.98885622    -0.21050
C478        C  0.04609983  0.02046033  0.97847315    -0.09090
C479        C  0.08265638  0.04452219  0.98853582     0.29770
C480        C  0.08300630  0.04449206  0.00850335    -0.21050
C481        C  0.04647183  0.02163027  0.01865680    -0.09100
C482        C  0.01019606  0.99762845  0.00874578     0.29780
F483        F  0.47496008  0.97453030  0.01833981    -0.19620
H484        H  0.48166451  0.97800826  0.98161848     0.18140
H485        H  0.11112899  0.06320875  0.01606858     0.18150
F486        F  0.11753890  0.06875276  0.97921843    -0.19610
C487        C  0.01228917  0.05080182  0.14622765    -0.21050
C488        C  0.02870698  0.00989910  0.13518251    -0.09090
C489        C  0.04759454  0.96989116  0.14434987     0.29770
C490        C  0.05472531  0.97246882  0.16393012    -0.21050
C491        C  0.04096868  0.01424908  0.17481387    -0.09100
C492        C  0.01830222  0.05304615  0.16598749     0.29780
F493        F  0.50417998  0.09371918  0.17631313    -0.19620
H494        H  0.49672189  0.08171198  0.13946327     0.18140
H495        H  0.07109170  0.94185405  0.17066049     0.18150
F496        F  0.05838514  0.92807711  0.13437923    -0.19610
C497        C  0.34360855  0.26029451  0.48501268    -0.21050
C498        C  0.31018916  0.23121780  0.47544890    -0.09090
C499        C  0.27686757  0.20522082  0.48634921     0.29770
C500        C  0.27471330  0.21173621  0.50626258    -0.21050
C501        C  0.30518067  0.24445659  0.51543839    -0.09100
C502        C  0.34081735  0.26732349  0.50481824     0.29780
F503        F  0.37241827  0.29703240  0.51359239    -0.19620
H504        H  0.37047800  0.27957588  0.47708069     0.18140
H505        H  0.24807438  0.19267193  0.51446772     0.18150
F506        F  0.24432006  0.17609258  0.47781740    -0.19610
C507        C  0.13875033  0.36131061  0.43787657    -0.21050
C508        C  0.16970394  0.33757462  0.45007047    -0.09090
C509        C  0.18876888  0.36582260  0.46506531     0.29770
C510        C  0.19944839  0.41361013  0.46129174    -0.21050
C511        C  0.18492933  0.43208419  0.44393681    -0.09100
C512        C  0.14966756  0.40820057  0.43345728     0.29780
F513        F  0.13630595  0.42375632  0.41625686    -0.19620
H514        H  0.11968303  0.34139493  0.42708940     0.18140
H515        H  0.22555562  0.43244953  0.46993097     0.18150
F516        F  0.21267994  0.34397433  0.47914344    -0.19610
C517        C  0.41479719  0.10925374  0.39931355    -0.21050
C518        C  0.38070034  0.08907979  0.38728558    -0.09090
C519        C  0.36364655  0.11626119  0.37229544     0.29770
C520        C  0.36753893  0.16633251  0.37380283    -0.21050
C521        C  0.38441818  0.18681644  0.39094589    -0.09100
C522        C  0.41567141  0.15907304  0.40167540     0.29780
F523        F  0.43204030  0.17693058  0.41844286    -0.19620
H524        H  0.42900643  0.08889293  0.41065504     0.18140
H525        H  0.34554858  0.18787660  0.36467281     0.18150
F526        F  0.33266996  0.09675206  0.35959475    -0.19610
C527        C  0.25653730  0.04698342  0.48003700    -0.21050
C528        C  0.30175627  0.04952044  0.47062148    -0.09090
C529        C  0.34390225  0.04903124  0.48125655     0.29770
C530        C  0.34063450  0.04507767  0.50110965    -0.21050
C531        C  0.29545831  0.03946318  0.51027429    -0.09100
C532        C  0.25335435  0.04128327  0.49967358     0.29780
F533        F  0.20924258  0.03720420  0.50829936    -0.19620
H534        H  0.22369107  0.04621920  0.47197700     0.18140
H535        H  0.37335141  0.04450005  0.50923331     0.18150
F536        F  0.38786291  0.05148008  0.47239088    -0.19610
C537        C  0.47636497  0.22434112  0.49343249    -0.21050
C538        C  0.51532259  0.24749951  0.48458649    -0.09090
C539        C  0.05304296  0.26448588  0.49589969     0.29770
C540        C  0.05148559  0.25879368  0.51559879    -0.21050
C541        C  0.51217552  0.23681273  0.52442411    -0.09100
C542        C  0.47444022  0.21955050  0.51328813     0.29780
F543        F  0.43589230  0.19846278  0.52158572    -0.19620
H544        H  0.44689393  0.21093323  0.48501670     0.18140
H545        H  0.08070182  0.27248795  0.52410170     0.18150
F546        F  0.09176482  0.28601463  0.48792213    -0.19610
C547        C  0.38789394  0.36369074  0.41063883    -0.21050
C548        C  0.39445979  0.34490958  0.42868511    -0.09090
C549        C  0.88762371  0.37639185  0.44475483     0.29770
C550        C  0.89648774  0.42519120  0.44266276    -0.21050
C551        C  0.40871061  0.44102160  0.42448521    -0.09100
C552        C  0.39770518  0.41221464  0.40833244     0.29780
F553        F  0.40771944  0.42747148  0.39052789    -0.19620
H554        H  0.38965485  0.33980638  0.39798355     0.18140
H555        H  0.90348825  0.44759685  0.45529266     0.18150
F556        F  0.88861853  0.35885351  0.46250613    -0.19610
C557        C  0.66662562  0.11500956  0.43914204    -0.21050
C558        C  0.65827272  0.08851490  0.42214990    -0.09090
C559        C  0.16433945  0.11153752  0.40485119     0.29770
C560        C  0.15559218  0.16123253  0.40499862    -0.21050
C561        C  0.64431725  0.18565020  0.42247675    -0.09100
C562        C  0.65751716  0.16466407  0.43949880     0.29780
F563        F  0.64934910  0.18884223  0.45658280    -0.19620
H564        H  0.66604961  0.09711339  0.45259830     0.18140
H565        H  0.14744530  0.17784792  0.39169650     0.18150
F566        F  0.16158933  0.08576638  0.38803500    -0.19610
C567        C  0.49940846  0.50896862  0.49269947    -0.21050
C568        C  0.54117796  0.50452482  0.48099582    -0.09090
C569        C  0.08630286  0.49658869  0.48917342     0.29770
C570        C  0.08948244  0.49388611  0.50893978    -0.21050
C571        C  0.54758533  0.49783110  0.52058735    -0.09100
C572        C  0.50246845  0.50518370  0.51240366     0.29780
F573        F  0.46175083  0.51060794  0.52355721    -0.19620
H574        H  0.46447337  0.51489420  0.48655070     0.18140
H575        H  0.12448697  0.48856570  0.51517268     0.18150
F576        F  0.12714743  0.99212395  0.47811741    -0.19610
C577        C  0.32257526  0.28541289  0.24394081    -0.21050
C578        C  0.29505518  0.25830323  0.23095062    -0.09090
C579        C  0.26137159  0.22592675  0.23823089     0.29770
C580        C  0.25327913  0.22368912  0.25792629    -0.21050
C581        C  0.28111830  0.25058134  0.27082760    -0.09100
C582        C  0.31733981  0.28000429  0.26355325     0.29780
F583        F  0.35017146  0.30055093  0.27515493    -0.19620
H584        H  0.35034425  0.30899154  0.23884046     0.18140
H585        H  0.22675125  0.19893537  0.26315811     0.18150
F586        F  0.23923767  0.19350764  0.22661373    -0.19610
C587        C  0.30508849  0.27852401  0.33613547    -0.21050
C588        C  0.26361616  0.27770775  0.32518869    -0.09090
C589        C  0.21786954  0.28206903  0.33444344     0.29770
C590        C  0.21381638  0.28424909  0.35444743    -0.21050
C591        C  0.25548522  0.28625194  0.36532314    -0.09100
C592        C  0.30118245  0.28402488  0.35597558     0.29780
F593        F  0.34227543  0.28579215  0.36610054    -0.19620
H594        H  0.34060915  0.27672954  0.32924555     0.18140
H595        H  0.17843826  0.28545163  0.36141883     0.18150
F596        F  0.17734844  0.28508182  0.32408189    -0.19610
C597        C  0.30999619  0.36474470  0.30389946    -0.21050
C598        C  0.27033096  0.33609716  0.29886416    -0.09090
C599        C  0.23052475  0.36005900  0.29102371     0.29770
C600        C  0.23051326  0.41066899  0.28837262    -0.21050
C601        C  0.27028967  0.43921212  0.29343209    -0.09100
C602        C  0.31074076  0.41476067  0.30068938     0.29780
F603        F  0.35219477  0.43863496  0.30379813    -0.19620
H604        H  0.34146597  0.34796389  0.30992187     0.18140
H605        H  0.19930790  0.42767466  0.28221641     0.18150
F606        F  0.19120405  0.33449978  0.28627783    -0.19610
C607        C  0.31362083  0.15782333  0.28961836    -0.21050
C608        C  0.27593060  0.18951242  0.29701085    -0.09090
C609        C  0.23623413  0.16733885  0.30584607     0.29770
C610        C  0.23495566  0.11644642  0.30748291    -0.21050
C611        C  0.27200297  0.08477236  0.29971609    -0.09100
C612        C  0.31190018  0.10674368  0.29094009     0.29780
F613        F  0.34974095  0.07897243  0.28382699    -0.19620
H614        H  0.34444494  0.17280169  0.28231824     0.18140
H615        H  0.20374182  0.10161463  0.31447671     0.18150
F616        F  0.19688261  0.19422710  0.31182945    -0.19610
C617        C  0.25739594  0.04057104  0.23849680    -0.21050
C618        C  0.29082778  0.01023086  0.22796124    -0.09090
C619        C  0.31738248  0.47548160  0.23759579     0.29770
C620        C  0.31192012  0.97211071  0.25725574    -0.21050
C621        C  0.27845223  0.00181672  0.26790417    -0.09100
C622        C  0.25026865  0.03562216  0.25824340     0.29780
F623        F  0.21501229  0.06272683  0.26762682    -0.19620
H624        H  0.23707026  0.06827531  0.23150512     0.18140
H625        H  0.33392596  0.44553893  0.26409847     0.18150
F626        F  0.34912682  0.44447656  0.22805151    -0.19610
C627        C  0.21928080  0.99091252  0.35014665    -0.21050
C628        C  0.26183741  0.98114216  0.35991330    -0.09090
C629        C  0.30681879  0.98708445  0.35057514     0.29770
C630        C  0.30895844  0.00552691  0.33237787    -0.21050
C631        C  0.26654907  0.01538839  0.32270880    -0.09100
C632        C  0.22166832  0.00699991  0.33149224     0.29780
F633        F  0.18042969  0.01621229  0.32220210    -0.19620
H634        H  0.18439435  0.98824513  0.35730771     0.18140
H635        H  0.34384927  0.01228668  0.32579628     0.18150
F636        F  0.34876447  0.97987828  0.35976614    -0.19610
C637        C  0.99735761  0.30134627  0.24206997    -0.21050
C638        C  0.02838281  0.26865203  0.23163414    -0.09090
C639        C  0.06156477  0.24047776  0.24167070     0.29770
C640        C  0.06494353  0.24736160  0.26158793    -0.21050
C641        C  0.03338986  0.28022043  0.27183313    -0.09100
C642        C  0.99870425  0.30605205  0.26179258     0.29780
F643        F  0.46588427  0.33641823  0.27108590    -0.19620
H644        H  0.47099646  0.32316925  0.23495544     0.18140
H645        H  0.09205189  0.22708102  0.26897012     0.18150
F646        F  0.08929327  0.20527379  0.23251204    -0.19610
C647        C  0.06160336  0.29640907  0.33724864    -0.21050
C648        C  0.02886331  0.26798686  0.32697245    -0.09090
C649        C  0.99127412  0.24617818  0.33716333     0.29770
C650        C  0.98849854  0.24986432  0.35705646    -0.21050
C651        C  0.02257416  0.27594522  0.36748777    -0.09100
C652        C  0.05836782  0.30071655  0.35734717     0.29780
F653        F  0.09147697  0.32717788  0.36681240    -0.19620
H654        H  0.09046601  0.31404504  0.32977156     0.18140
H655        H  0.45984983  0.23132002  0.36434584     0.18150
F656        F  0.95742747  0.22025152  0.32787552    -0.19610
C657        C  0.06862043  0.42703537  0.28785129    -0.21050
C658        C  0.03351596  0.45170118  0.29967518    -0.09090
C659        C  0.50144028  0.42280642  0.31021916     0.29770
C660        C  0.50464769  0.37166944  0.30902726    -0.21050
C661        C  0.03994785  0.34690287  0.29729029    -0.09100
C662        C  0.07143448  0.37588335  0.28648855     0.30100
F663        F  0.10446125  0.35453527  0.27402756    -0.19620
H664        H  0.09462006  0.44740284  0.27987830     0.18140
H665        H  0.47808714  0.35145204  0.31676168     0.18150
F666        F  0.46641729  0.44427863  0.32178217    -0.19610
C667        C  0.99806369  0.12788069  0.28833690    -0.21050
C668        C  0.03350852  0.09723961  0.29609630    -0.09090
C669        C  0.07085059  0.12008145  0.30611270     0.29770
C670        C  0.07168760  0.17115897  0.30859970    -0.21050
C671        C  0.03637495  0.20173107  0.30075613    -0.09100
C672        C  0.99920828  0.17892077  0.29063632     0.29780
F673        F  0.96279156  0.20581583  0.28356197    -0.19620
H674        H  0.96911907  0.11199677  0.28029830     0.18140
H675        H  0.60028404  0.18712521  0.31679513     0.18150
F676        F  0.60742030  0.09322427  0.31306388    -0.19610
C677        C  0.06273324  0.05754934  0.25772901    -0.21050
C678        C  0.03351759  0.03072881  0.26993401    -0.09090
C679        C  0.50050935  0.49856979  0.26171028     0.29770
C680        C  0.49861492  0.99221770  0.24190749    -0.21050
C681        C  0.02643489  0.02050802  0.22974888    -0.09100
C682        C  0.05780896  0.05422575  0.23797760     0.29780
F683        F  0.08037559  0.08709469  0.22729569    -0.19620
H684        H  0.08736679  0.08374694  0.26360295     0.18140
H685        H  0.47279327  0.46731318  0.23595084     0.18150
F686        F  0.46756558  0.47601606  0.27265411    -0.19610
C687        C  0.50513653  0.54958163  0.33469951    -0.21050
C688        C  0.03906539  0.51865802  0.32482986    -0.09090
C689        C  0.07305046  0.49286258  0.33523434     0.29770
C690        C  0.07129057  0.49570554  0.35499937    -0.21050
C691        C  0.03593689  0.52446306  0.36498551    -0.09100
C692        C  0.50408233  0.55314783  0.35468376     0.29780
F693        F  0.47051033  0.58264491  0.36378866    -0.19620
H694        H  0.47799710  0.56905517  0.32702075     0.18140
H695        H  0.09689870  0.47384903  0.36251226     0.18150
F696        F  0.10601143  0.46201951  0.32631326    -0.19610
C697        C  0.25845960  0.33520118  0.85467183    -0.21050
C698        C  0.27569230  0.29824914  0.86613239    -0.09090
C699        C  0.28984509  0.25352520  0.85711852     0.29770
C700        C  0.28965573  0.24707745  0.83717097    -0.21050
C701        C  0.27488208  0.28472140  0.82563853    -0.09100
C702        C  0.25842475  0.32873231  0.83462064     0.29780
F703        F  0.24551586  0.36648473  0.82396181    -0.19620
H704        H  0.24685353  0.36982669  0.86119053     0.18140
H705        H  0.30283773  0.21299933  0.83060356     0.18150
F706        F  0.30364645  0.21577336  0.86759494    -0.19610
C707        C  0.28279393  0.00644471  0.82899957    -0.21050
C708        C  0.26524538  0.04547320  0.81889666    -0.09090
C709        C  0.25581860  0.09037344  0.82850514     0.29770
C710        C  0.26193900  0.09550183  0.84816326    -0.21050
C711        C  0.27898953  0.05635130  0.85831189    -0.09100
C712        C  0.29022020  0.01190652  0.84856330     0.29780
F713        F  0.30587197  0.47314760  0.85808841    -0.19620
H714        H  0.28995648  0.97158326  0.82175776     0.18140
H715        H  0.25351839  0.13005182  0.85546783     0.18150
F716        F  0.24093903  0.12925501  0.81889507    -0.19610
C717        C  0.41729458  0.23213198  0.79168663    -0.21050
C718        C  0.44695745  0.26907627  0.79922592    -0.09090
C719        C  0.42285711  0.31018139  0.80789449     0.29770
C720        C  0.37175055  0.31406290  0.80881057    -0.21050
C721        C  0.34212958  0.27796560  0.80073517    -0.09100
C722        C  0.36600392  0.23640458  0.79238899     0.29780
F723        F  0.33978336  0.19954692  0.78510264    -0.19620
H724        H  0.43414701  0.20057985  0.78440656     0.18140
H725        H  0.35500440  0.34617505  0.81571286     0.18150
F726        F  0.44861101  0.34834702  0.81430342    -0.19610
C727        C  0.17633895  0.24476379  0.80672372    -0.21050
C728        C  0.19698630  0.28180379  0.79622091    -0.09090
C729        C  0.16430531  0.31619742  0.78887109     0.29770
C730        C  0.11347768  0.31360176  0.79202260    -0.21050
C731        C  0.09278580  0.27579768  0.80214608    -0.09100
C732        C  0.12557869  0.24177624  0.80966566     0.29780
F733        F  0.10843352  0.20454479  0.81962369    -0.19620
H734        H  0.19959618  0.21702095  0.81226457     0.18140
H735        H  0.09010968  0.34115786  0.78639462     0.18150
F736        F  0.18160995  0.35272573  0.77855370    -0.19610
C737        C  0.03633614  0.31951828  0.83755599    -0.21050
C738        C  0.02545503  0.27689144  0.82724989    -0.09090
C739        C  0.00801340  0.23731663  0.83708768     0.29770
C740        C  0.00409180  0.23987540  0.85711159    -0.21050
C741        C  0.01771698  0.28179866  0.86743101    -0.09100
C742        C  0.03200497  0.32222037  0.85741769     0.29780
F743        F  0.54222031  0.36428482  0.86688992    -0.19620
H744        H  0.54929495  0.35048999  0.83015947     0.18140
H745        H  0.99290769  0.20834272  0.86456501     0.18150
F746        F  0.99782567  0.19541920  0.82744421    -0.19610
C747        C  0.42380403  0.98360312  0.79249534    -0.21050
C748        C  0.45044135  0.02600513  0.79533792    -0.09090
C749        C  0.42343852  0.06987485  0.79833002     0.29770
C750        C  0.37255202  0.07168059  0.79610529    -0.21050
C751        C  0.34646741  0.02957070  0.79177290    -0.09100
C752        C  0.37276822  0.98509237  0.79139009     0.29780
F753        F  0.34924228  0.44287729  0.78876718    -0.19620
H754        H  0.44277101  0.44915122  0.79012088     0.18140
H755        H  0.35376140  0.10645377  0.79690837     0.18150
F756        F  0.44690786  0.11185290  0.80140037    -0.19610
C757        C  0.17000858  0.07568571  0.79293622    -0.21050
C758        C  0.20083062  0.03438288  0.79430508    -0.09090
C759        C  0.17763594  0.99019846  0.79716576     0.29770
C760        C  0.12656435  0.98787082  0.79894901    -0.21050
C761        C  0.09603503  0.02891372  0.79699488    -0.09100
C762        C  0.11890321  0.07279815  0.79350933     0.29780
F763        F  0.09184030  0.11390165  0.79206953    -0.19620
H764        H  0.18505686  0.11123049  0.79243577     0.18140
H765        H  0.11059582  0.45378439  0.80236241     0.18150
F766        F  0.20453966  0.44959897  0.79976575    -0.19610
C767        C  0.00680241  0.99431973  0.85236287    -0.21050
C768        C  0.02042983  0.03602170  0.86276233    -0.09090
C769        C  0.03680339  0.07611497  0.85308223     0.29770
C770        C  0.04162947  0.07358413  0.83328360    -0.21050
C771        C  0.03057301  0.03104482  0.82296759    -0.09100
C772        C  0.01230143  0.99158707  0.83251307     0.29780
F773        F  0.50252277  0.94971644  0.82276363    -0.19620
H774        H  0.49466842  0.96289513  0.85967060     0.18140
H775        H  0.05519552  0.10446460  0.82603993     0.18150
F776        F  0.04899763  0.11730570  0.86277854    -0.19610
C777        C  0.30136523  0.31704775  0.74153312    -0.21050
C778        C  0.27414855  0.28861611  0.72873005    -0.09090
C779        C  0.24155754  0.25618910  0.73677170     0.29770
C780        C  0.23697956  0.25227386  0.75673370    -0.21050
C781        C  0.26346957  0.28141442  0.76953791    -0.09100
C782        C  0.29575098  0.31418092  0.76151376     0.29780
F783        F  0.31936824  0.34612752  0.77285007    -0.19620
H784        H  0.32610701  0.34315246  0.73602257     0.18140
H785        H  0.21089532  0.22748615  0.76226492     0.18150
F786        F  0.21153821  0.23051521  0.72554305    -0.19610
C787        C  0.25214489  0.29772013  0.66290611    -0.21050
C788        C  0.28706800  0.27121931  0.67262474    -0.09090
C789        C  0.32808301  0.25265140  0.66225414     0.29770
C790        C  0.33315204  0.25888281  0.64261663    -0.21050
C791        C  0.29742868  0.28340491  0.63261587    -0.09100
C792        C  0.25738135  0.30415363  0.64312733     0.29780
F793        F  0.22222634  0.32873810  0.63422986    -0.19620
H794        H  0.22018062  0.31228772  0.67054625     0.18140
H795        H  0.36490411  0.24350017  0.63510914     0.18150
F796        F  0.36334584  0.22804435  0.67113682    -0.19610
C797        C  0.31366006  0.42168454  0.68745062    -0.21050
C798        C  0.27646444  0.45391459  0.69462454    -0.09090
C799        C  0.23924857  0.43385494  0.70573822     0.29770
C800        C  0.23968445  0.38376279  0.70950201    -0.21050
C801        C  0.27704773  0.35150402  0.70236688    -0.09100
C802        C  0.31471828  0.37197629  0.69157926     0.29780
F803        F  0.35366965  0.34437201  0.68549612    -0.19620
H804        H  0.34304512  0.43551861  0.67893335     0.18140
H805        H  0.21036665  0.36996803  0.71806182     0.18150
F806        F  0.20188742  0.46248806  0.71271183    -0.19610
C807        C  0.24567372  0.17601462  0.68711069    -0.21050
C808        C  0.27950764  0.20546843  0.69666529    -0.09090
C809        C  0.31560456  0.18112972  0.70663923     0.29770
C810        C  0.31700058  0.12991012  0.70725595    -0.21050
C811        C  0.28252153  0.10032245  0.69808209    -0.09100
C812        C  0.24651911  0.12477884  0.68801591     0.29780
F813        F  0.21076941  0.09957370  0.67968370    -0.19620
H814        H  0.21776871  0.19304881  0.67898393     0.18140
H815        H  0.34497657  0.11306385  0.71540360     0.18150
F816        F  0.35049731  0.20671058  0.71541199    -0.19610
C817        C  0.25315515  0.06911740  0.73629551    -0.21050
C818        C  0.28082714  0.03782525  0.72377205    -0.09090
C819        C  0.31273857  0.00443677  0.73180349     0.29770
C820        C  0.31372209  0.00026121  0.75164664    -0.21050
C821        C  0.28646821  0.03212551  0.76419323    -0.09100
C822        C  0.25818987  0.06831628  0.75603805     0.29780
F823        F  0.24020677  0.10656976  0.76677379    -0.19620
H824        H  0.23011418  0.09703896  0.73071243     0.18140
H825        H  0.33803673  0.97345150  0.75701367     0.18150
F826        F  0.34573363  0.97841809  0.72076574    -0.19610
C827        C  0.23804481  0.99289517  0.65752184    -0.21050
C828        C  0.27475520  0.01465748  0.66821114    -0.09090
C829        C  0.31157860  0.03816458  0.65828505     0.29770
C830        C  0.31139915  0.03981727  0.63827081    -0.21050
C831        C  0.27510610  0.01740086  0.62751223    -0.09100
C832        C  0.23798471  0.99433770  0.63748234     0.29780
F833        F  0.20140230  0.47403279  0.62791449    -0.19620
H834        H  0.20945148  0.47445006  0.66472201     0.18140
H835        H  0.34066533  0.05773464  0.63111376     0.18150
F836        F  0.34905216  0.05751104  0.66779511    -0.19610
C837        C  0.05415188  0.25181587  0.76334984    -0.21050
C838        C  0.01064934  0.27035825  0.77200336    -0.09090
C839        C  0.97558014  0.28967640  0.75982092     0.29770
C840        C  0.48435504  0.29017360  0.74026657    -0.21050
C841        C  0.03040916  0.27946705  0.73252205    -0.09100
C842        C  0.06560334  0.26038837  0.74428276     0.29780
F843        F  0.11155655  0.25216874  0.73772492    -0.19620
H844        H  0.08046885  0.23221622  0.77126493     0.18140
H845        H  0.45515761  0.30093074  0.73134296     0.18150
F846        F  0.43303003  0.30994799  0.76646889    -0.19610
C847        C  0.08866048  0.24914942  0.66708650    -0.21050
C848        C  0.04922021  0.26545719  0.67867429    -0.09090
C849        C  0.50813364  0.28584953  0.67051522     0.29770
C850        C  0.50599366  0.28800838  0.65079999    -0.21050
C851        C  0.54410938  0.26857603  0.63915070    -0.09100
C852        C  0.08613790  0.25051394  0.64735882     0.29780
F853        F  0.12395635  0.23278849  0.63631164    -0.19620
H854        H  0.12040405  0.23330413  0.67330426     0.18140
H855        H  0.47315383  0.30155602  0.64461017     0.18150
F856        F  0.46863568  0.29973504  0.68146034    -0.19610
C857        C  0.08730536  0.41714787  0.69835253    -0.21050
C858        C  0.04716501  0.44873426  0.70258749    -0.09090
C859        C  0.50447438  0.42764208  0.70921472     0.29770
C860        C  0.50238395  0.37726415  0.71173712    -0.21050
C861        C  0.04286753  0.34543199  0.70807702    -0.09100
C862        C  0.08551950  0.36674463  0.70125426     0.29780
F863        F  0.12583879  0.33883707  0.69748763    -0.19620
H864        H  0.12041123  0.43169943  0.69266009     0.18140
H865        H  0.46787084  0.36361393  0.71601357     0.18150
F866        F  0.46390430  0.45551198  0.71252375    -0.19610
C867        C  0.50719488  0.17191126  0.69599344    -0.21050
C868        C  0.04676660  0.19941015  0.70217858    -0.09090
C869        C  0.08846550  0.17284813  0.70712889     0.29770
C870        C  0.08808789  0.12195244  0.70846389    -0.21050
C871        C  0.04774760  0.09470045  0.70321433    -0.09100
C872        C  0.50792439  0.12058983  0.69610281     0.29780
F873        F  0.46818993  0.09652054  0.69054111    -0.19620
H874        H  0.47555682  0.19037211  0.69080100     0.18140
H875        H  0.11981513  0.10352761  0.71360031     0.18150
F876        F  0.13069588  0.19557943  0.70962135    -0.19610
C877        C  0.49053544  0.06258716  0.75892954    -0.21050
C878        C  0.01525841  0.02787668  0.76910448    -0.09090
C879        C  0.04880337  0.99622238  0.75936473     0.29770
C880        C  0.06044502  0.00264906  0.74020374    -0.21050
C881        C  0.03459016  0.03673068  0.72993057    -0.09100
C882        C  0.49858760  0.06586743  0.73953120     0.29780
F883        F  0.46991819  0.09700950  0.73032332    -0.19620
H884        H  0.46422158  0.08734298  0.76582921     0.18140
H885        H  0.08898314  0.98025828  0.73337871     0.18150
F886        F  0.06900751  0.95824799  0.76807540    -0.19610
C887        C  0.09019117  0.52479012  0.64677013    -0.21050
C888        C  0.55171856  0.50529011  0.63658172    -0.09090
C889        C  0.51100131  0.48862087  0.64638480     0.29770
C890        C  0.50956071  0.49001651  0.66617243    -0.21050
C891        C  0.54875987  0.50750387  0.67636035    -0.09100
C892        C  0.08901332  0.52537305  0.66667053     0.29780
F893        F  0.12770538  0.54117067  0.67639353    -0.19620
H894        H  0.12172696  0.53790384  0.63931445     0.18140
H895        H  0.47822811  0.47637564  0.67359888     0.18150
F896        F  0.47255757  0.47128862  0.63684892    -0.19610
C897        C  0.54835436  0.00169030  0.69702103     0.00820
C898        C  0.04425144  0.54216075  0.70925171     0.00820
C899        C  0.04802431  0.75387024  0.69888861     0.00820
C900        C  0.04158619  0.79113807  0.71255576     0.00820
C901        C  0.27663000  0.50738541  0.68932253     0.00820
C902        C  0.28017619  0.54620842  0.70268283     0.00820
C903        C  0.28059337  0.76011930  0.69335053     0.00820
C904        C  0.27739628  0.79766873  0.70747341     0.00820
C905        C  0.04183068  0.52731599  0.80236456     0.00820
C906        C  0.00443148  0.52551118  0.78973277     0.00820
C907        C  0.00090928  0.76996290  0.79333630     0.00820
C908        C  0.03788937  0.77327110  0.80654589     0.00820
C909        C  0.29355193  0.53238972  0.78538772     0.00820
C910        C  0.25481839  0.53868087  0.79839232     0.00820
C911        C  0.25147994  0.78141754  0.79091144     0.00820
C912        C  0.28729346  0.78089989  0.80468995     0.00820
C913        C  0.03516637  0.00650844  0.30416951     0.00820
C914        C  0.03405021  0.04260302  0.29092062     0.00820
C915        C  0.03539352  0.75623910  0.30601175     0.00820
C916        C  0.03793983  0.79221263  0.29271466     0.00820
C917        C  0.27183207  0.49293429  0.28861676     0.00820
C918        C  0.26983849  0.53000290  0.30263460     0.00820
C919        C  0.27498975  0.74313027  0.29166253     0.00820
C920        C  0.26882218  0.78307042  0.30434893     0.00820
O921        O  0.51148879  0.05486931  0.39653595    -0.72680
O922        O  0.51435906  0.04366169  0.45360546    -0.73660
O923        O  0.57414668  0.58344237  0.42536556    -0.62280
O924        O  0.45008936  0.01509393  0.42517419    -0.70690
O925        O  0.99259782  0.94618614  0.42131456    -0.70250
O926        O  0.11621229  0.51468654  0.42070955    -0.61500
O927        O  0.05819491  0.97560720  0.44937878    -0.74010
O928        O  0.05233338  0.98510608  0.39333143    -0.72790
Cu929      Cu  0.51099939  0.05188908  0.42533370     1.04560
Cu930      Cu  0.05600364  0.97798161  0.42109850     1.04330
C931        C  0.53273601  0.02174171  0.38595333     0.93510
C932        C  0.53758846  0.00811082  0.46037020     0.92650
C933        C  0.61440596  0.56033047  0.42288834     0.84800
C934        C  0.45222690  0.96931923  0.42327525     0.91070
O935        O  0.49993408  0.73875123  0.39629886    -0.72680
O936        O  0.49629416  0.72277815  0.45282549    -0.73660
O937        O  0.43623553  0.76878493  0.42698394    -0.62280
O938        O  0.56035600  0.69336165  0.42218238    -0.70690
O939        O  0.10232538  0.75999789  0.42603007    -0.70250
O940        O  0.97894230  0.83516156  0.43034879    -0.61500
O941        O  0.03864305  0.78927206  0.45669183    -0.74010
O942        O  0.04278812  0.80498891  0.39936323    -0.72790
Cu943      Cu  0.49705688  0.72878480  0.42445840     1.04560
Cu944      Cu  0.04200502  0.79982903  0.42828616     1.04330
C945        C  0.02184563  0.77358554  0.38873760     0.93510
C946        C  0.51693705  0.75348109  0.46374565     0.92650
C947        C  0.93839049  0.81436827  0.42915841     0.84800
C948        C  0.10060237  0.71466999  0.42338446     0.91070
O949        O  0.29187150  0.45701133  0.38969733    -0.72680
O950        O  0.32688776  0.50623680  0.44213179    -0.73660
O951        O  0.26036873  0.44122029  0.42871463    -0.62280
O952        O  0.35939656  0.51943767  0.40345982    -0.70690
O953        O  0.30379116  0.57769124  0.40086011    -0.70250
O954        O  0.20710771  0.50203680  0.42842798    -0.61500
O955        O  0.27403217  0.56714533  0.44010377    -0.74010
O956        O  0.23450055  0.51437914  0.38959591    -0.72790
Cu957      Cu  0.31145895  0.47867102  0.41608461     1.04560
Cu958      Cu  0.25313371  0.54232493  0.41468112     1.04330
C959        C  0.26067964  0.48173581  0.38083916     0.93510
C960        C  0.30308339  0.54234976  0.44978933     0.92650
C961        C  0.21916049  0.96013272  0.43342404     0.84800
C962        C  0.34618176  0.55985741  0.39721087     0.91070
O963        O  0.23323101  0.74835632  0.39391369    -0.72680
O964        O  0.27597231  0.70969947  0.44553801    -0.73660
O965        O  0.19969373  0.76569328  0.43316553    -0.62280
O966        O  0.30925352  0.69319379  0.40661199    -0.70690
O967        O  0.35556101  0.75748704  0.40799209    -0.70250
O968        O  0.24704470  0.82895348  0.43507960    -0.61500
O969        O  0.32335833  0.77308768  0.44692453    -0.74010
O970        O  0.27993425  0.81248559  0.39601506    -0.72790
Cu971      Cu  0.25287250  0.72692539  0.41973014     1.04560
Cu972      Cu  0.30279492  0.79531172  0.42163864     1.04330
C973        C  0.25399118  0.78370130  0.38622342     0.93510
C974        C  0.30434011  0.73713565  0.45482809     0.92650
C975        C  0.20728090  0.80864188  0.43912636     0.84800
C976        C  0.34848362  0.71425496  0.40237374     0.91070
O977        O  0.99901256  0.53556490  0.10558753    -0.72680
O978        O  0.00928667  0.54172800  0.04874425    -0.73660
O979        O  0.46838346  0.47825381  0.07414600    -0.62280
O980        O  0.04168740  0.59868809  0.08031198    -0.70690
O981        O  0.10928466  0.55441603  0.08104125    -0.70250
O982        O  0.53654817  0.43466637  0.07179609    -0.61500
O983        O  0.07982588  0.50166151  0.04817430    -0.74010
O984        O  0.06496991  0.48843310  0.10477130    -0.72790
Cu985      Cu  0.00215853  0.54013821  0.07718972     1.04560
Cu986      Cu  0.07504666  0.49337366  0.07646054     1.04330
C987        C  0.03048682  0.51082917  0.11416450     0.93510
C988        C  0.04560841  0.52234901  0.03951645     0.92650
C989        C  0.49090235  0.43756463  0.07176096     0.84800
C990        C  0.08715351  0.59530194  0.08195923     0.91070
O991        O  0.99656554  0.78176617  0.10842069    -0.72680
O992        O  0.01900264  0.80623829  0.05306931    -0.73660
O993        O  0.47011917  0.73615468  0.07307362    -0.62280
O994        O  0.04453920  0.85067524  0.08844182    -0.70690
O995        O  0.11093072  0.80407932  0.08785300    -0.70250
O996        O  0.53672236  0.69033894  0.07168114    -0.61500
O997        O  0.08564040  0.75991874  0.05250191    -0.74010
O998        O  0.06211956  0.73379107  0.10746873    -0.72790
Cu999      Cu  0.00506614  0.79522919  0.08073918     1.04560
Cu1000     Cu  0.07616215  0.74545635  0.07990328     1.04330
C1001       C  0.02741860  0.75575852  0.11681136     0.93510
C1002       C  0.05492535  0.78571189  0.04398340     0.92650
C1003       C  0.49185361  0.69547143  0.06946716     0.84800
C1004       C  0.08942078  0.84499790  0.09086333     0.91070
O1005       O  0.25383731  0.52539419  0.04488609    -0.72680
O1006       O  0.25752377  0.51303480  0.10201669    -0.73660
O1007       O  0.21838356  0.58077246  0.07743202    -0.62280
O1008       O  0.29167771  0.45721906  0.06946416    -0.70690
O1009       O  0.35916658  0.49896663  0.07038335    -0.70250
O1010       O  0.28529139  0.62263344  0.07942073    -0.61500
O1011       O  0.32518826  0.55400033  0.10333062    -0.74010
O1012       O  0.32002725  0.56887414  0.04618010    -0.72790
Cu1013     Cu  0.25296355  0.51785360  0.07341328     1.04560
Cu1014     Cu  0.32490593  0.56243663  0.07478207     1.04330
C1015       C  0.28658390  0.54926122  0.03650964     0.93510
C1016       C  0.29156642  0.53143636  0.11173913     0.92650
C1017       C  0.23966951  0.62087088  0.07989835     0.84800
C1018       C  0.33735197  0.45889215  0.06890050     0.91070
O1019       O  0.24104846  0.78705517  0.05447168    -0.72680
O1020       O  0.27162444  0.75481124  0.10789140    -0.73660
O1021       O  0.22016825  0.82907895  0.09165360    -0.62280
O1022       O  0.29335901  0.71405823  0.07090893    -0.70690
O1023       O  0.35897201  0.75840829  0.07008428    -0.70250
O1024       O  0.28463838  0.87481470  0.09013570    -0.61500
O1025       O  0.33581443  0.80149580  0.10715542    -0.74010
O1026       O  0.30659730  0.83161352  0.05297989    -0.72790
Cu1027     Cu  0.25418758  0.76987593  0.08127757     1.04560
Cu1028     Cu  0.32390697  0.81806392  0.07996807     1.04330
C1029       C  0.27039807  0.81235793  0.04503401     0.93510
C1030       C  0.30683232  0.77483109  0.11622539     0.92650
C1031       C  0.24058827  0.86955406  0.09461864     0.84800
C1032       C  0.33806093  0.71824250  0.06726817     0.91070
C1033       C  0.01605181  0.51896682  0.20890065     0.00820
C1034       C  0.05309145  0.51724521  0.19517273     0.00820
C1035       C  0.02051568  0.76242224  0.21073349     0.00820
C1036       C  0.05800687  0.76097075  0.19723094     0.00820
C1037       C  0.30292446  0.51704101  0.20732578     0.00820
C1038       C  0.26730986  0.51828461  0.19378696     0.00820
C1039       C  0.27303392  0.76207700  0.19640727     0.00820
C1040       C  0.30790630  0.75993590  0.21016090     0.00820
O1041       O  0.99144607  0.51255089  0.89298611    -0.72680
O1042       O  0.00850999  0.50060696  0.94898704    -0.73660
O1043       O  0.46027349  0.56624196  0.92626944    -0.62280
O1044       O  0.03947942  0.44707254  0.91504587    -0.70690
O1045       O  0.10521227  0.49068916  0.91462207    -0.70250
O1046       O  0.52693267  0.60857125  0.92423428    -0.61500
O1047       O  0.07399736  0.54488735  0.94778609    -0.74010
O1048       O  0.05831875  0.55521710  0.89172633    -0.72790
Cu1049     Cu  0.99758758  0.50504258  0.92096193     1.04560
Cu1050     Cu  0.06842601  0.55131662  0.91959493     1.04330
C1051       C  0.02296882  0.53516476  0.88349725     0.93510
C1052       C  0.04308529  0.52172774  0.95739891     0.92650
C1053       C  0.48160573  0.60650435  0.92631119     0.84800
C1054       C  0.08480475  0.44995321  0.91306646     0.91070
O1055       O  0.99140488  0.76010025  0.89875611    -0.72680
O1056       O  0.00698676  0.76436069  0.95575617    -0.73660
O1057       O  0.46078412  0.82335328  0.92967727    -0.62280
O1058       O  0.03656838  0.70113518  0.92544793    -0.70690
O1059       O  0.10289219  0.74244735  0.92088283    -0.70250
O1060       O  0.52825322  0.86463090  0.92777122    -0.61500
O1061       O  0.07510554  0.80444828  0.95225921    -0.74010
O1062       O  0.05669089  0.80444778  0.89606902    -0.72790
Cu1063     Cu  0.99643827  0.76078163  0.92751912     1.04560
Cu1064     Cu  0.06809608  0.80535077  0.92409717     1.04330
C1065       C  0.02174060  0.78221765  0.88843307     0.93510
C1066       C  0.04366500  0.78493638  0.96285332     0.92650
C1067       C  0.48266110  0.86328672  0.92944242     0.84800
C1068       C  0.08169866  0.70229351  0.92251509     0.91070
O1069       O  0.24890903  0.58371834  0.88895756    -0.72680
O1070       O  0.25291428  0.58768797  0.94635828    -0.73660
O1071       O  0.28904752  0.64457574  0.91690957    -0.62280
O1072       O  0.21201102  0.52669617  0.91789524    -0.70690
O1073       O  0.27938716  0.48207702  0.91417999    -0.70250
O1074       O  0.35625555  0.59994706  0.91623471    -0.61500
O1075       O  0.31825968  0.53962637  0.94426533    -0.74010
O1076       O  0.31770421  0.54068989  0.88714966    -0.72790
Cu1077     Cu  0.24839386  0.58733451  0.91760021     1.04560
Cu1078     Cu  0.32039360  0.53913807  0.91544842     1.04330
C1079       C  0.28230182  0.56095994  0.87909547     0.93510
C1080       C  0.28596580  0.56343292  0.95434184     0.92650
C1081       C  0.33457590  0.64120610  0.91686368     0.84800
C1082       C  0.23373576  0.48574722  0.91556982     0.91070
O1083       O  0.31103186  0.78407879  0.89656589    -0.72680
O1084       O  0.30950286  0.79487331  0.95432124    -0.73660
O1085       O  0.27352880  0.73223572  0.92689534    -0.62280
O1086       O  0.35009415  0.84861925  0.92485932    -0.70690
O1087       O  0.28334670  0.89401436  0.92687634    -0.70250
O1088       O  0.20571885  0.77542465  0.92480279    -0.61500
O1089       O  0.24030860  0.83693062  0.95410426    -0.74010
O1090       O  0.24650208  0.83278134  0.89649148    -0.72790
Cu1091     Cu  0.31353667  0.78863699  0.92560176     1.04560
Cu1092     Cu  0.24169163  0.83655152  0.92549366     1.04330
C1093       C  0.27809184  0.80569755  0.88738233     0.93510
C1094       C  0.27362559  0.81625795  0.96324030     0.92650
C1095       C  0.22816104  0.73493629  0.92586357     0.84800
C1096       C  0.32893899  0.88999593  0.92643805     0.91070
O1097       O  0.07342540  0.03594123  0.60683605    -0.72680
O1098       O  0.07727982  0.02702020  0.55005970    -0.73660
O1099       O  0.01520036  0.57170141  0.57835868    -0.62280
O1100       O  0.13450876  0.99088358  0.57940471    -0.70690
O1101       O  0.59088241  0.92555130  0.57605646    -0.70250
O1102       O  0.47231133  0.50588702  0.58171733    -0.61500
O1103       O  0.52671905  0.96588380  0.55046328    -0.74010
O1104       O  0.53502992  0.96635612  0.60700275    -0.72790
Cu1105     Cu  0.07678687  0.03366049  0.57859015     1.04560
Cu1106     Cu  0.52979152  0.96338422  0.57881532     1.04330
C1107       C  0.55372198  0.00225716  0.61584118     0.93510
C1108       C  0.55105531  0.99642417  0.54134217     0.92650
C1109       C  0.47489686  0.55116436  0.58075020     0.84800
C1110       C  0.63184135  0.94561695  0.57692464     0.91070
O1111       O  0.05354832  0.72362928  0.60994118    -0.72680
O1112       O  0.03647571  0.70508372  0.55381242    -0.73660
O1113       O  0.10239065  0.75115424  0.57739576    -0.62280
O1114       O  0.98499511  0.67815608  0.58719323    -0.70690
O1115       O  0.44229723  0.74655187  0.59092222    -0.70250
O1116       O  0.55779585  0.81821008  0.57569398    -0.61500
O1117       O  0.48763574  0.76976197  0.55491380    -0.74010
O1118       O  0.51355169  0.79418307  0.61018182    -0.72790
Cu1119     Cu  0.04574281  0.71183282  0.58209993     1.04560
Cu1120     Cu  0.49860436  0.78436532  0.58289253     1.04330
C1121       C  0.53731687  0.76211758  0.61875699     0.93510
C1122       C  0.51056976  0.73588345  0.54540275     0.92650
C1123       C  0.59862719  0.79608988  0.57502127     0.84800
C1124       C  0.44478177  0.70088694  0.59056088     0.91070
O1125       O  0.25615894  0.48795966  0.59532952    -0.72680
O1126       O  0.27103205  0.49638524  0.53745341    -0.73660
O1127       O  0.32295264  0.95222908  0.56620853    -0.62280
O1128       O  0.20321664  0.52793268  0.56482469    -0.70690
O1129       O  0.24246785  0.59494771  0.57129228    -0.70250
O1130       O  0.36567052  0.01870110  0.56886912    -0.61500
O1131       O  0.31017815  0.56487609  0.54207935    -0.74010
O1132       O  0.30139620  0.55249812  0.59857137    -0.72790
Cu1133     Cu  0.26200301  0.48862989  0.56583827     1.04560
Cu1134     Cu  0.30645109  0.56012108  0.57031434     1.04330
C1135       C  0.27735879  0.51915569  0.60612639     0.93510
C1136       C  0.29236165  0.53300234  0.53089509     0.92650
C1137       C  0.36324631  0.97306107  0.56715973     0.84800
C1138       C  0.20300103  0.57280365  0.56849795     0.91070
O1139       O  0.27547220  0.81067110  0.60151666    -0.72680
O1140       O  0.28524517  0.79346044  0.54359786    -0.73660
O1141       O  0.22123236  0.76519463  0.57248757    -0.62280
O1142       O  0.33958680  0.84021289  0.57202692    -0.70690
O1143       O  0.38228549  0.77179231  0.56873036    -0.70250
O1144       O  0.26390232  0.69988706  0.57939768    -0.61500
O1145       O  0.31828336  0.72047857  0.54667237    -0.74010
O1146       O  0.32788037  0.74950800  0.60272825    -0.72790
Cu1147     Cu  0.27870895  0.80509755  0.57233089     1.04560
Cu1148     Cu  0.32464502  0.73328140  0.57454887     1.04330
C1149       C  0.30086663  0.78202089  0.61131793     0.93510
C1150       C  0.30239566  0.75335066  0.53621843     0.92650
C1151       C  0.22368319  0.72114282  0.57651046     0.84800
C1152       C  0.38000841  0.81752752  0.56966236     0.91070
C1153       C  0.41849492  0.92338326  0.58423581    -0.21050
C1154       C  0.40612690  0.94245430  0.56676152    -0.09090
C1155       C  0.41752736  0.91596093  0.54968942     0.29770
C1156       C  0.42903019  0.86691860  0.55058709    -0.21050
C1157       C  0.42345111  0.84575462  0.56827058    -0.09100
C1158       C  0.43051746  0.87451819  0.58480840     0.29780
F1159       F  0.43099641  0.85408992  0.60206404    -0.19620
H1160       H  0.41053563  0.94370547  0.59755036     0.18140
H1161       H  0.42825289  0.84460536  0.53754757     0.18150
F1162       F  0.40612938  0.93392486  0.53261497    -0.19610
C1163       C  0.16560857  0.67745467  0.55777587    -0.21050
C1164       C  0.18105946  0.69266239  0.57591922    -0.09090
C1165       C  0.16788603  0.66677016  0.59192228     0.29770
C1166       C  0.15075153  0.62028137  0.58888215    -0.21050
C1167       C  0.15702955  0.59964705  0.57036589    -0.09100
C1168       C  0.15021544  0.63016782  0.55521097     0.29780
F1169       F  0.14612550  0.61112147  0.53719226    -0.19620
H1170       H  0.17334639  0.69836120  0.54537008     0.18140
H1171       H  0.14931087  0.59711565  0.60095178     0.18150
F1172       F  0.18098791  0.68180293  0.60966585    -0.19610
C1173       C  0.18188353  0.88763399  0.59076047    -0.21050
C1174       C  0.67552437  0.91504759  0.57465695    -0.09090
C1175       C  0.67632210  0.88947905  0.55691871     0.29770
C1176       C  0.65426562  0.84458660  0.55628557    -0.21050
C1177       C  0.64145357  0.82420141  0.57360721    -0.09100
C1178       C  0.16053737  0.84256874  0.59070391     0.29780
F1179       F  0.15079391  0.82154853  0.60748984    -0.19620
H1180       H  0.18878018  0.90540120  0.60439833     0.18140
H1181       H  0.64171565  0.82949775  0.54285338     0.18150
F1182       F  0.68041404  0.91390050  0.54059782    -0.19610
C1183       C  0.91853082  0.59448404  0.60273896    -0.21050
C1184       C  0.43186203  0.58072905  0.58383832    -0.09090
C1185       C  0.41435677  0.60729395  0.56880339     0.29770
C1186       C  0.39302045  0.65250109  0.57315099    -0.21050
C1187       C  0.40084953  0.67284107  0.59144203    -0.09100
C1188       C  0.90004454  0.64123020  0.60654008     0.29780
F1189       F  0.89773033  0.65898736  0.62485961    -0.19620
H1190       H  0.92985830  0.57298816  0.61446839     0.18140
H1191       H  0.38794021  0.67575143  0.56133119     0.18150
F1192       F  0.42510869  0.59349101  0.55032843    -0.19610
C1193       C  0.38789029  0.93851282  0.91215004    -0.21050
C1194       C  0.35878445  0.93240903  0.92843672    -0.09090
C1195       C  0.38057342  0.93583674  0.94625079     0.29770
C1196       C  0.42868078  0.92051955  0.94708176    -0.21050
C1197       C  0.45380306  0.90747019  0.92999884    -0.09100
C1198       C  0.43568052  0.92215621  0.91257897     0.29780
F1199       F  0.45974575  0.91043368  0.89582164    -0.19620
H1200       H  0.37143403  0.94078970  0.89834937     0.18140
H1201       H  0.44287238  0.91051986  0.96066024     0.18150
F1202       F  0.35283259  0.93664753  0.96250625    -0.19610
C1203       C  0.18636952  0.67383768  0.90718728    -0.21050
C1204       C  0.20133555  0.69105356  0.92512182    -0.09090
C1205       C  0.17834493  0.67564081  0.94177640     0.29770
C1206       C  0.13350537  0.65420060  0.94004149    -0.21050
C1207       C  0.11127157  0.65790346  0.92241657    -0.09100
C1208       C  0.14132637  0.65279644  0.90606787     0.29780
F1209       F  0.12168899  0.64585071  0.88869076    -0.19620
H1210       H  0.20538064  0.68328596  0.89420350     0.18140
H1211       H  0.11160557  0.65020158  0.95288965     0.18150
F1212       F  0.19435181  0.68907220  0.95930776    -0.19610
C1213       C  0.37922124  0.68820668  0.93817228    -0.21050
C1214       C  0.36325961  0.68446368  0.91934642    -0.09090
C1215       C  0.39823992  0.68802299  0.90474274     0.29770
C1216       C  0.44347586  0.66738108  0.90777896    -0.21050
C1217       C  0.45301124  0.65049940  0.92591508    -0.09100
C1218       C  0.42369710  0.66605450  0.94166145     0.29780
F1219       F  0.43408948  0.15263067  0.95957557    -0.19620
H1220       H  0.35313404  0.19260766  0.94999344     0.18140
H1221       H  0.46721720  0.65762729  0.89560634     0.18150
F1222       F  0.38467126  0.69406902  0.88654782    -0.19610
C1223       C  0.13983447  0.39933143  0.92737639    -0.21050
C1224       C  0.11565827  0.40654355  0.91038910    -0.09090
C1225       C  0.14464496  0.40782189  0.89369689     0.29770
C1226       C  0.18930523  0.42972987  0.89523782    -0.21050
C1227       C  0.20514675  0.44298910  0.91348543    -0.09100
C1228       C  0.18295881  0.42369896  0.92963900     0.29780
F1229       F  0.19855099  0.43465247  0.94744761    -0.19620
H1230       H  0.11941991  0.39092256  0.94016152     0.18140
H1231       H  0.20734869  0.44252867  0.88257154     0.18150
F1232       F  0.12412651  0.40517383  0.87637303    -0.19610
C1233       C  0.38810345  0.79756811  0.19903947    -0.21050
C1234       C  0.36251337  0.75747951  0.20543534    -0.09090
C1235       C  0.39036441  0.71758215  0.21114058     0.29770
C1236       C  0.44133646  0.71807649  0.21109339    -0.21050
C1237       C  0.46708477  0.75862772  0.20549085    -0.09100
C1238       C  0.43945761  0.79832351  0.19912529     0.29780
F1239       F  0.46163339  0.83973640  0.19477914    -0.19620
H1240       H  0.36827198  0.82979124  0.19528095     0.18140
H1241       H  0.46081303  0.68750848  0.21660250     0.18150
F1242       F  0.36777719  0.67905428  0.21811928    -0.19610
C1243       C  0.14094319  0.72134070  0.19238163    -0.21050
C1244       C  0.11262240  0.75991138  0.20076413    -0.09090
C1245       C  0.13809975  0.79864802  0.20934287     0.29770
C1246       C  0.18982946  0.79868580  0.20892516    -0.21050
C1247       C  0.21782176  0.76036152  0.19983226    -0.09100
C1248       C  0.19182561  0.72147372  0.19182124     0.29780
F1249       F  0.21559470  0.68286460  0.18321895    -0.19620
H1250       H  0.12341913  0.69087626  0.18563247     0.18140
H1251       H  0.20796588  0.82968021  0.21501991     0.18150
F1252       F  0.11320980  0.83764003  0.21720562    -0.19610
C1253       C  0.38594880  0.98710847  0.19267297    -0.21050
C1254       C  0.35724062  0.52246933  0.20313295    -0.09090
C1255       C  0.38205879  0.55820148  0.21364009     0.29770
C1256       C  0.43288529  0.55852095  0.21389054    -0.21050
C1257       C  0.46188022  0.52204412  0.20435709    -0.09100
C1258       C  0.43736749  0.98631995  0.19349831     0.29780
F1259       F  0.46249071  0.94839757  0.18494582    -0.19620
H1260       H  0.36846403  0.95779795  0.18508144     0.18140
H1261       H  0.44976954  0.58607388  0.22269251     0.18150
F1262       F  0.35670778  0.59076368  0.22515365    -0.19610
C1263       C  0.18480546  0.55817326  0.19092659    -0.21050
C1264       C  0.21249811  0.52017836  0.19823011    -0.09090
C1265       C  0.18653006  0.98234201  0.20655527     0.29770
C1266       C  0.13490317  0.98238353  0.20681733    -0.21050
C1267       C  0.10758523  0.51992490  0.19871415    -0.09100
C1268       C  0.13389633  0.55811689  0.19106926     0.29780
F1269       F  0.11015513  0.59530956  0.18311397    -0.19620
H1270       H  0.20301192  0.58752408  0.18424897     0.18140
H1271       H  0.11637392  0.95183785  0.21245341     0.18150
F1272       F  0.21088211  0.94379317  0.21324570    -0.19610
C1273       C  0.28089297  0.77292891  0.99330729    -0.21050
C1274       C  0.27002889  0.81580094  0.98423073    -0.09090
C1275       C  0.25501530  0.85721480  0.99536164     0.29770
C1276       C  0.25473634  0.85668194  0.01534827    -0.21050
C1277       C  0.26625695  0.81382946  0.02428985    -0.09100
C1278       C  0.27773965  0.77166564  0.01316348     0.29780
F1279       F  0.28719839  0.72954336  0.02164238    -0.19620
H1280       H  0.29115403  0.74024152  0.98499312     0.18140
H1281       H  0.24536265  0.88937169  0.02379980     0.18150
F1282       F  0.24159225  0.89825521  0.98692264    -0.19610
C1283       C  0.31111752  0.72641169  0.14531859    -0.21050
C1284       C  0.30979204  0.77153856  0.13697794    -0.09090
C1285       C  0.30176990  0.81367890  0.14860074     0.29770
C1286       C  0.29039020  0.81028307  0.16801382    -0.21050
C1287       C  0.28942323  0.76504481  0.17621433    -0.09100
C1288       C  0.30278187  0.72330614  0.16500239     0.29780
F1289       F  0.30616014  0.67958249  0.17296073    -0.19620
H1290       H  0.31746035  0.69368883  0.13651291     0.18140
H1291       H  0.28137645  0.84284743  0.17660565     0.18150
F1292       F  0.30123031  0.85782400  0.14087424    -0.19610
C1293       C  0.27332351  0.51406692  0.00362368    -0.21050
C1294       C  0.28601664  0.55368027  0.01547332    -0.09090
C1295       C  0.29836798  0.59708579  0.00699169     0.29770
C1296       C  0.29750828  0.60084844  0.98707783    -0.21050
C1297       C  0.28571990  0.56083977  0.97533092    -0.09100
C1298       C  0.27386924  0.51748841  0.98372648     0.29780
F1299       F  0.26224589  0.47873655  0.97250858    -0.19620
H1300       H  0.26388226  0.48018922  0.00977159     0.18140
H1301       H  0.30671589  0.63466712  0.98081638     0.18150
F1302       F  0.31027328  0.63606234  0.01802276    -0.19610
C1303       C  0.26577767  0.48854039  0.14067342    -0.21050
C1304       C  0.29116660  0.52646143  0.13282518    -0.09090
C1305       C  0.31342755  0.55980544  0.14535944     0.29770
C1306       C  0.30763785  0.55634079  0.16527501    -0.21050
C1307       C  0.28040411  0.51911700  0.17296158    -0.09100
C1308       C  0.26051475  0.48462469  0.16038175     0.29780
F1309       F  0.23493048  0.94749449  0.16722469    -0.19620
H1310       H  0.24945597  0.46201321  0.13142968     0.18140
H1311       H  0.32289404  0.58366053  0.17465911     0.18150
F1312       F  0.33871810  0.59695193  0.13844194    -0.19610
C1313       C  0.38503048  0.64982903  0.07682195    -0.21050
C1314       C  0.36765195  0.67600257  0.06164692    -0.09090
C1315       C  0.39532767  0.67689459  0.04461190     0.29770
C1316       C  0.44388676  0.66272466  0.04485450    -0.21050
C1317       C  0.46375061  0.65489426  0.06265201    -0.09100
C1318       C  0.43374447  0.63715519  0.07698916     0.29780
F1319       F  0.45242775  0.62513720  0.09389296    -0.19620
H1320       H  0.36465214  0.64918201  0.09021097     0.18140
H1321       H  0.46721978  0.67242243  0.03302575     0.18150
F1322       F  0.37932735  0.70169640  0.02964697    -0.19610
C1323       C  0.13693006  0.88264251  0.11554512    -0.21050
C1324       C  0.11764437  0.88520420  0.09733386    -0.09090
C1325       C  0.14043166  0.91300994  0.08360458     0.29770
C1326       C  0.18569979  0.93107108  0.08739074    -0.21050
C1327       C  0.21076147  0.91034964  0.10216986    -0.09100
C1328       C  0.18354210  0.89848134  0.11841470     0.29780
F1329       F  0.20623868  0.88425921  0.13421898    -0.19620
H1330       H  0.11999764  0.86091938  0.12623937     0.18140
H1331       H  0.20538932  0.94521878  0.07545733     0.18150
F1332       F  0.12566812  0.91229996  0.06530096    -0.19610
C1333       C  0.06078265  0.74337771  0.01250355    -0.21050
C1334       C  0.05801599  0.78737351  0.02318440    -0.09090
C1335       C  0.05272676  0.83099146  0.01385713     0.29770
C1336       C  0.04954087  0.83022144  0.99397109    -0.21050
C1337       C  0.05000036  0.78592930  0.98346023    -0.09100
C1338       C  0.05607847  0.74253387  0.99276951     0.29780
F1339       F  0.05716110  0.69944021  0.98277090    -0.19620
H1340       H  0.06428031  0.70945084  0.01957818     0.18140
H1341       H  0.04516817  0.86395316  0.98682956     0.18150
F1342       F  0.05059910  0.87396259  0.02393993    -0.19610
C1343       C  0.03766532  0.71469694  0.16715687    -0.21050
C1344       C  0.04520743  0.75912569  0.17687772    -0.09090
C1345       C  0.04221951  0.80207927  0.16703561     0.29770
C1346       C  0.03210536  0.80054948  0.14765534    -0.21050
C1347       C  0.02698229  0.75606559  0.13769317    -0.09100
C1348       C  0.02964909  0.71303727  0.14751987     0.29780
F1349       F  0.52551145  0.66969860  0.13803987    -0.19620
H1350       H  0.53979836  0.68138263  0.17466353     0.18140
H1351       H  0.03130584  0.83394460  0.14013226     0.18150
F1352       F  0.05054041  0.84528780  0.17607289    -0.19610
C1353       C  0.44101289  0.39107693  0.05135150    -0.21050
C1354       C  0.46250073  0.39437843  0.06921090    -0.09090
C1355       C  0.43364120  0.38615036  0.08540050     0.29770
C1356       C  0.38516869  0.39981376  0.08487091    -0.21050
C1357       C  0.36641206  0.41480102  0.06764036    -0.09100
C1358       C  0.39219166  0.40383492  0.05048993     0.29780
F1359       F  0.37364960  0.41586894  0.03355012    -0.19620
H1360       H  0.46313843  0.39247404  0.03843752     0.18140
H1361       H  0.36581505  0.90782085  0.09834588     0.18150
F1362       F  0.45406540  0.88360335  0.10277567    -0.19610
C1363       C  0.13524267  0.65701033  0.06735008    -0.21050
C1364       C  0.11581261  0.63821409  0.08410140    -0.09090
C1365       C  0.13833630  0.64756040  0.10150771     0.29770
C1366       C  0.18537292  0.66456850  0.10110908    -0.21050
C1367       C  0.20968730  0.66451852  0.08332331    -0.09100
C1368       C  0.18208756  0.67422384  0.06740993     0.29780
F1369       F  0.20454237  0.18221800  0.05044000    -0.19620
H1370       H  0.11775504  0.15127478  0.05385481     0.18140
H1371       H  0.20589981  0.66309497  0.11402661     0.18150
F1372       F  0.11904329  0.63176426  0.11805303    -0.19610
C1373       C  0.01019159  0.49677551  0.98882372    -0.21050
C1374       C  0.04605315  0.52045982  0.97843988    -0.09090
C1375       C  0.08264814  0.54446319  0.98850131     0.29770
C1376       C  0.08300408  0.54442171  0.00846860    -0.21050
C1377       C  0.04643844  0.52160774  0.01862308    -0.09100
C1378       C  0.01012561  0.49766161  0.00871301     0.29780
F1379       F  0.47486077  0.47460511  0.01830779    -0.19620
H1380       H  0.48155788  0.47809605  0.98158706     0.18140
H1381       H  0.11115679  0.56309359  0.01603294     0.18150
F1382       F  0.11756708  0.56864229  0.97918280    -0.19610
C1383       C  0.01228224  0.55080055  0.14618912    -0.21050
C1384       C  0.02870345  0.50988966  0.13514960    -0.09090
C1385       C  0.04759936  0.46989427  0.14432266     0.29770
C1386       C  0.05472520  0.47249009  0.16390337    -0.21050
C1387       C  0.04096116  0.51427789  0.17478140    -0.09100
C1388       C  0.01829428  0.55306444  0.16594881     0.29780
F1389       F  0.50416856  0.59374580  0.17626855    -0.19620
H1390       H  0.49671265  0.58170291  0.13942036     0.18140
H1391       H  0.07109280  0.44188308  0.17063855     0.18150
F1392       F  0.05840265  0.42807480  0.13435756    -0.19610
C1393       C  0.34406090  0.76090096  0.48504580    -0.21050
C1394       C  0.31073037  0.73166266  0.47550800    -0.09090
C1395       C  0.27752077  0.70559672  0.48643233     0.29770
C1396       C  0.27539545  0.71217357  0.50634250    -0.21050
C1397       C  0.30576572  0.74503662  0.51549122    -0.09100
C1398       C  0.34128619  0.76800440  0.50484865     0.29780
F1399       F  0.37280914  0.79784848  0.51359947    -0.19620
H1400       H  0.37085878  0.78022025  0.47709477     0.18140
H1401       H  0.24885261  0.69303495  0.51456702     0.18150
F1402       F  0.24505810  0.67632055  0.47792691    -0.19610
C1403       C  0.13903314  0.86110864  0.43763637    -0.21050
C1404       C  0.16983429  0.83734944  0.44988444    -0.09090
C1405       C  0.18868988  0.86552669  0.46494395     0.29770
C1406       C  0.19934621  0.91335997  0.46124445    -0.21050
C1407       C  0.18493050  0.93196880  0.44390102    -0.09100
C1408       C  0.14979190  0.90812267  0.43334295     0.29780
F1409       F  0.13646327  0.92390269  0.41617125    -0.19620
H1410       H  0.12024637  0.84123158  0.42675348     0.18140
H1411       H  0.22535422  0.93216759  0.46994201     0.18150
F1412       F  0.21247304  0.84361133  0.47903893    -0.19610
C1413       C  0.41498489  0.60917992  0.39953735    -0.21050
C1414       C  0.38092361  0.58917663  0.38744631    -0.09090
C1415       C  0.36414796  0.61643385  0.37243235     0.29770
C1416       C  0.36843219  0.66646863  0.37390846    -0.21050
C1417       C  0.38523466  0.68688864  0.39107771    -0.09100
C1418       C  0.41622200  0.65898960  0.40185773     0.29780
F1419       F  0.43253760  0.67679173  0.41864458    -0.19620
H1420       H  0.42890613  0.58880319  0.41091494     0.18140
H1421       H  0.34670509  0.68812028  0.36472832     0.18150
F1422       F  0.33318939  0.59708566  0.35968633    -0.19610
C1423       C  0.25671649  0.54738283  0.48006924    -0.21050
C1424       C  0.30192950  0.54947479  0.47061571    -0.09090
C1425       C  0.34412647  0.54859223  0.48121516     0.29770
C1426       C  0.34091159  0.54465762  0.50106868    -0.21050
C1427       C  0.29571408  0.53947283  0.51026960    -0.09100
C1428       C  0.25356846  0.54171552  0.49970812     0.29780
F1429       F  0.20944902  0.53806196  0.50837375    -0.19620
H1430       H  0.22382021  0.54692786  0.47203883     0.18140
H1431       H  0.37366508  0.54376034  0.50916414     0.18150
F1432       F  0.38807854  0.55063072  0.47231153    -0.19610
C1433       C  0.47648954  0.72437685  0.49345727    -0.21050
C1434       C  0.51561742  0.74733171  0.48463799    -0.09090
C1435       C  0.05338504  0.76407313  0.49597795     0.29770
C1436       C  0.05171517  0.75833777  0.51567646    -0.21050
C1437       C  0.51223832  0.73657439  0.52447585    -0.09100
C1438       C  0.47444816  0.71956037  0.51331160     0.29780
F1439       F  0.43574344  0.69867074  0.52157981    -0.19620
H1440       H  0.44697670  0.71115267  0.48502069     0.18140
H1441       H  0.08097880  0.77184182  0.52419958     0.18150
F1442       F  0.09226014  0.78540089  0.48802577    -0.19610
C1443       C  0.38844859  0.86373786  0.41065324    -0.21050
C1444       C  0.39504204  0.84507416  0.42871895    -0.09090
C1445       C  0.88814653  0.87660876  0.44476923     0.29770
C1446       C  0.89668305  0.92545386  0.44263506    -0.21050
C1447       C  0.40884186  0.94125337  0.42444740    -0.09100
C1448       C  0.39797051  0.91231174  0.40831495     0.29780
F1449       F  0.40791438  0.92753353  0.39049957    -0.19620
H1450       H  0.39035029  0.83980220  0.39801311     0.18140
H1451       H  0.90358307  0.94795993  0.45524886     0.18150
F1452       F  0.88932749  0.85918105  0.46253525    -0.19610
C1453       C  0.66673306  0.61461031  0.43894327    -0.21050
C1454       C  0.65812625  0.58826416  0.42194181    -0.09090
C1455       C  0.16410073  0.61135373  0.40465382     0.29770
C1456       C  0.15565751  0.66109811  0.40486058    -0.21050
C1457       C  0.64465217  0.68546011  0.42237495    -0.09100
C1458       C  0.65793980  0.66431334  0.43935206     0.29780
F1459       F  0.65006989  0.68843648  0.45646476    -0.19620
H1460       H  0.66616133  0.59664080  0.45238308     0.18140
H1461       H  0.14746013  0.67784035  0.39158924     0.18150
F1462       F  0.16104322  0.58569471  0.38782443    -0.19610
C1463       C  0.49944275  0.00941500  0.49277583    -0.21050
C1464       C  0.54114019  0.00450149  0.48104532    -0.09090
C1465       C  0.08619839  0.99598585  0.48919809     0.29770
C1466       C  0.08939817  0.99317835  0.50895891    -0.21050
C1467       C  0.54757448  0.99759552  0.52063011    -0.09100
C1468       C  0.50251031  0.00551321  0.51247612     0.29780
F1469       F  0.46187131  0.01135647  0.52365456    -0.19620
H1470       H  0.46455232  0.01579625  0.48665161     0.18140
H1471       H  0.12436529  0.98742853  0.51516919     0.18150
F1472       F  0.12730357  0.49317033  0.47811115    -0.19610
C1473       C  0.32255981  0.78548777  0.24393931    -0.21050
C1474       C  0.29505208  0.75836900  0.23094921    -0.09090
C1475       C  0.26138922  0.72596603  0.23822353     0.29770
C1476       C  0.25330155  0.72370998  0.25791647    -0.21050
C1477       C  0.28113820  0.75060084  0.27081802    -0.09100
C1478       C  0.31734273  0.78004951  0.26354853     0.29780
F1479       F  0.35018065  0.80058622  0.27515003    -0.19620
H1480       H  0.35031442  0.80908512  0.23884059     0.18140
H1481       H  0.22678660  0.69893915  0.26314545     0.18150
F1482       F  0.23927780  0.69353831  0.22660267    -0.19610
C1483       C  0.30532645  0.77832326  0.33609099    -0.21050
C1484       C  0.26379688  0.77759277  0.32517789    -0.09090
C1485       C  0.21808984  0.78189094  0.33446461     0.29770
C1486       C  0.21413004  0.78393479  0.35446862    -0.21050
C1487       C  0.25585603  0.78586457  0.36531025    -0.09100
C1488       C  0.30151239  0.78370334  0.35593370     0.29780
F1489       F  0.34264960  0.78546426  0.36603193    -0.19620
H1490       H  0.34081601  0.77656881  0.32917456     0.18140
H1491       H  0.17878425  0.78511505  0.36146689     0.18150
F1492       F  0.17752222  0.78499054  0.32413539    -0.19610
C1493       C  0.31006357  0.86472343  0.30392145    -0.21050
C1494       C  0.27040119  0.83607866  0.29887980    -0.09090
C1495       C  0.23059710  0.86004644  0.29104052     0.29770
C1496       C  0.23058332  0.91066057  0.28839847    -0.21050
C1497       C  0.27035798  0.93920088  0.29346334    -0.09100
C1498       C  0.31080941  0.91474176  0.30071700     0.29780
F1499       F  0.35226876  0.93860841  0.30382379    -0.19620
H1500       H  0.34153614  0.84793728  0.30993948     0.18140
H1501       H  0.19937976  0.92767106  0.28224289     0.18150
F1502       F  0.19128225  0.83448839  0.28628551    -0.19610
C1503       C  0.31364640  0.65781242  0.28961387    -0.21050
C1504       C  0.27593771  0.68950368  0.29698595    -0.09090
C1505       C  0.23618727  0.66734104  0.30578618     0.29770
C1506       C  0.23487788  0.61645121  0.30741536    -0.21050
C1507       C  0.27195018  0.58477426  0.29967337    -0.09100
C1508       C  0.31189703  0.60673358  0.29092814     0.29780
F1509       F  0.34975600  0.57895076  0.28383930    -0.19620
H1510       H  0.34450665  0.67278856  0.28233696     0.18140
H1511       H  0.20362586  0.60162377  0.31438373     0.18150
F1512       F  0.19681877  0.69424251  0.31174024    -0.19610
C1513       C  0.25736648  0.54059004  0.23846128    -0.21050
C1514       C  0.29081070  0.51025867  0.22792809    -0.09090
C1515       C  0.31739998  0.97545084  0.23762667     0.29770
C1516       C  0.31188032  0.47212830  0.25722401    -0.21050
C1517       C  0.27839683  0.50182338  0.26786907    -0.09100
C1518       C  0.25022057  0.53563083  0.25820626     0.29780
F1519       F  0.21495122  0.56272631  0.26758586    -0.19620
H1520       H  0.23704250  0.56829415  0.23146885     0.18140
H1521       H  0.33396974  0.94552090  0.26412812     0.18150
F1522       F  0.34912756  0.94443403  0.22807926    -0.19610
C1523       C  0.21921781  0.49103575  0.35012680    -0.21050
C1524       C  0.26178178  0.48129475  0.35989272    -0.09090
C1525       C  0.30675937  0.48723303  0.35055164     0.29770
C1526       C  0.30889054  0.50561780  0.33234547    -0.21050
C1527       C  0.26647638  0.51542757  0.32267261    -0.09100
C1528       C  0.22159744  0.50706569  0.33146363     0.29780
F1529       F  0.18035414  0.51625155  0.32217270    -0.19620
H1530       H  0.18433331  0.48837831  0.35729165     0.18140
H1531       H  0.34377793  0.51236823  0.32575895     0.18150
F1532       F  0.34870850  0.48006225  0.35974457    -0.19610
C1533       C  0.99737979  0.80141268  0.24211014    -0.21050
C1534       C  0.02839380  0.76871604  0.23166979    -0.09090
C1535       C  0.06156790  0.74052393  0.24170270     0.29770
C1536       C  0.06494929  0.74738889  0.26162090    -0.21050
C1537       C  0.03341009  0.78025231  0.27187143    -0.09100
C1538       C  0.99873477  0.80610798  0.26183386     0.29780
F1539       F  0.46593304  0.83648665  0.27113105    -0.19620
H1540       H  0.47102268  0.82324596  0.23499735     0.18140
H1541       H  0.09205147  0.72709170  0.26899973     0.18150
F1542       F  0.08928664  0.70532022  0.23253901    -0.19610
C1543       C  0.06183520  0.79637564  0.33727314    -0.21050
C1544       C  0.02901954  0.76799841  0.32701558    -0.09090
C1545       C  0.99143678  0.74624396  0.33722789     0.29770
C1546       C  0.98873348  0.74994064  0.35712216    -0.21050
C1547       C  0.02288708  0.77596622  0.36753582    -0.09100
C1548       C  0.05868375  0.80068041  0.35737424     0.29780
F1549       F  0.09187325  0.82707962  0.36682030    -0.19620
H1550       H  0.09069050  0.81397735  0.32977843     0.18140
H1551       H  0.46007958  0.73144151  0.36442632     0.18150
F1552       F  0.95752499  0.72036119  0.32795917    -0.19610
C1553       C  0.06868317  0.92704742  0.28790055    -0.21050
C1554       C  0.03359842  0.95171503  0.29973380    -0.09090
C1555       C  0.50154284  0.92282182  0.31028713     0.29770
C1556       C  0.50473667  0.87168320  0.30908844    -0.21050
C1557       C  0.04000816  0.84691518  0.29733746    -0.09100
C1558       C  0.07148790  0.87589564  0.28653312     0.30100
F1559       F  0.10449756  0.85454829  0.27406468    -0.19620
H1560       H  0.09467148  0.94741346  0.27992131     0.18140
H1561       H  0.47818687  0.85146638  0.31682885     0.18150
F1562       F  0.46654662  0.94429638  0.32186250    -0.19610
C1563       C  0.99803561  0.62792903  0.28834089    -0.21050
C1564       C  0.03346260  0.59724726  0.29608988    -0.09090
C1565       C  0.07080316  0.62004843  0.30612176     0.29770
C1566       C  0.07166687  0.67112255  0.30862692    -0.21050
C1567       C  0.03637915  0.70173690  0.30079013    -0.09100
C1568       C  0.99920132  0.67896662  0.29066181     0.29780
F1569       F  0.96279892  0.70589676  0.28359584    -0.19620
H1570       H  0.96908814  0.61207983  0.28029343     0.18140
H1571       H  0.60026990  0.68705299  0.31682934     0.18150
F1572       F  0.60735134  0.59315585  0.31306919    -0.19610
C1573       C  0.06266383  0.55761654  0.25770215    -0.21050
C1574       C  0.03344525  0.53078570  0.26990238    -0.09090
C1575       C  0.50057676  0.99850932  0.26174711     0.29770
C1576       C  0.49856456  0.49228002  0.24187064    -0.21050
C1577       C  0.02639561  0.52056975  0.22971576    -0.09100
C1578       C  0.05776019  0.55429030  0.23794911     0.29780
F1579       F  0.08034253  0.58715306  0.22726918    -0.19620
H1580       H  0.08729231  0.58381292  0.26358048     0.18140
H1581       H  0.47283816  0.96725156  0.23599117     0.18150
F1582       F  0.46764379  0.97595644  0.27269626    -0.19610
C1583       C  0.50529128  0.04975523  0.33473334    -0.21050
C1584       C  0.03915670  0.01874081  0.32487104    -0.09090
C1585       C  0.07315286  0.99297888  0.33528158     0.29770
C1586       C  0.07147407  0.99595421  0.35504607    -0.21050
C1587       C  0.03618544  0.02480395  0.36502911    -0.09100
C1588       C  0.50431708  0.05345225  0.35471720     0.29780
F1589       F  0.47080362  0.08303616  0.36381321    -0.19620
H1590       H  0.47814364  0.06921036  0.32705221     0.18140
H1591       H  0.09707971  0.97410680  0.36256352     0.18150
F1592       F  0.10605432  0.96205120  0.32637177    -0.19610
C1593       C  0.25848501  0.83517015  0.85471544    -0.21050
C1594       C  0.27567093  0.79819315  0.86617426    -0.09090
C1595       C  0.28977851  0.75346000  0.85715736     0.29770
C1596       C  0.28959802  0.74702686  0.83720850    -0.21050
C1597       C  0.27486910  0.78469330  0.82567826    -0.09100
C1598       C  0.25845259  0.82871415  0.83466375     0.29780
F1599       F  0.24558611  0.86648605  0.82400779    -0.19620
H1600       H  0.24691279  0.86980369  0.86123623     0.18140
H1601       H  0.30274741  0.71293971  0.83063875     0.18150
F1602       F  0.30352047  0.71568458  0.86763228    -0.19610
C1603       C  0.28267916  0.50642349  0.82897505    -0.21050
C1604       C  0.26513292  0.54544810  0.81886973    -0.09090
C1605       C  0.25571932  0.59035656  0.82847292     0.29770
C1606       C  0.26185333  0.59549869  0.84812937    -0.21050
C1607       C  0.27890547  0.55635322  0.85828016    -0.09100
C1608       C  0.29012009  0.51189895  0.84853677     0.29780
F1609       F  0.30597142  0.97314922  0.85811156    -0.19620
H1610       H  0.28983298  0.47155661  0.82173640     0.18140
H1611       H  0.25344402  0.63005506  0.85543077     0.18150
F1612       F  0.24084342  0.62923277  0.81885898    -0.19610
C1613       C  0.41728906  0.73211346  0.79172909    -0.21050
C1614       C  0.44695080  0.76906477  0.79926347    -0.09090
C1615       C  0.42284901  0.81017270  0.80792929     0.29770
C1616       C  0.37174188  0.81404909  0.80884804    -0.21050
C1617       C  0.34212240  0.77794538  0.80077637    -0.09100
C1618       C  0.36599835  0.73638293  0.79243249     0.29780
F1619       F  0.33977881  0.69952224  0.78514818    -0.19620
H1620       H  0.43414222  0.70056032  0.78445023     0.18140
H1621       H  0.35499451  0.84616311  0.81574835     0.18150
F1622       F  0.44860154  0.84834369  0.81433403    -0.19610
C1623       C  0.17632985  0.74474692  0.80675824    -0.21050
C1624       C  0.19698159  0.78178583  0.79625591    -0.09090
C1625       C  0.16430406  0.81618759  0.78890938     0.29770
C1626       C  0.11347586  0.81359997  0.79206317    -0.21050
C1627       C  0.09277953  0.77579549  0.80218541    -0.09100
C1628       C  0.12556912  0.74176608  0.80970178     0.29780
F1629       F  0.10841977  0.70453248  0.81965755    -0.19620
H1630       H  0.19958405  0.71700026  0.81229782     0.18140
H1631       H  0.09011065  0.84116123  0.78643716     0.18150
F1632       F  0.18161263  0.85271802  0.77859419    -0.19610
C1633       C  0.03632977  0.81951803  0.83759420    -0.21050
C1634       C  0.02544449  0.77689285  0.82728783    -0.09090
C1635       C  0.00799596  0.73732060  0.83712551     0.29770
C1636       C  0.00407299  0.73987942  0.85714946    -0.21050
C1637       C  0.01770336  0.78180014  0.86746926    -0.09100
C1638       C  0.03199718  0.82222020  0.85745597     0.29780
F1639       F  0.54221798  0.86428301  0.86692824    -0.19620
H1640       H  0.54929400  0.85048798  0.83019779     0.18140
H1641       H  0.99288438  0.70834803  0.86460250     0.18150
F1642       F  0.99780265  0.69542486  0.82748190    -0.19610
C1643       C  0.42370116  0.48356758  0.79247507    -0.21050
C1644       C  0.45034071  0.52597135  0.79530801    -0.09090
C1645       C  0.42334152  0.56984377  0.79829671     0.29770
C1646       C  0.37245368  0.57164845  0.79607710    -0.21050
C1647       C  0.34636574  0.52953544  0.79175434    -0.09100
C1648       C  0.37266463  0.48505675  0.79137605     0.29780
F1649       F  0.34934885  0.94291380  0.78877316    -0.19620
H1650       H  0.44287607  0.94918874  0.79013835     0.18140
H1651       H  0.35366421  0.60642198  0.79687571     0.18150
F1652       F  0.44681482  0.61182304  0.80135769    -0.19610
C1653       C  0.16990981  0.57565549  0.79290085    -0.21050
C1654       C  0.20072819  0.53435198  0.79427520    -0.09090
C1655       C  0.17752993  0.49017126  0.79713877     0.29770
C1656       C  0.12645837  0.48784777  0.79892010    -0.21050
C1657       C  0.09593251  0.52889018  0.79696002    -0.09100
C1658       C  0.11880424  0.57277111  0.79347146     0.29780
F1659       F  0.09174460  0.61387548  0.79202780    -0.19620
H1660       H  0.18496029  0.61119897  0.79239897     0.18140
H1661       H  0.11070483  0.95380353  0.80238778     0.18150
F1662       F  0.20464948  0.94962532  0.79978716    -0.19610
C1663       C  0.00670647  0.49432669  0.85233197    -0.21050
C1664       C  0.02037187  0.53601653  0.86272982    -0.09090
C1665       C  0.03676543  0.57609964  0.85304819     0.29770
C1666       C  0.04157040  0.57356915  0.83324901    -0.21050
C1667       C  0.03047706  0.53103902  0.82293409    -0.09100
C1668       C  0.01218845  0.49159250  0.83248189     0.29780
F1669       F  0.50238116  0.44972722  0.82273459    -0.19620
H1670       H  0.49455735  0.46290956  0.85964102     0.18140
H1671       H  0.05515250  0.60444068  0.82600411     0.18150
F1672       F  0.04900291  0.61727799  0.86274328    -0.19610
C1673       C  0.30139378  0.81705297  0.74157661    -0.21050
C1674       C  0.27420688  0.78860990  0.72876636    -0.09090
C1675       C  0.24161955  0.75616828  0.73680176     0.29770
C1676       C  0.23701343  0.75225582  0.75676440    -0.21050
C1677       C  0.26347850  0.78140489  0.76957489    -0.09100
C1678       C  0.29575666  0.81418324  0.76155665     0.29780
F1679       F  0.31934958  0.84613766  0.77289826    -0.19620
H1680       H  0.32613196  0.84316862  0.73607180     0.18140
H1681       H  0.21093171  0.72745878  0.76229078     0.18150
F1682       F  0.21163234  0.73047471  0.72556585    -0.19610
C1683       C  0.25240802  0.79779921  0.66292578    -0.21050
C1684       C  0.28728585  0.77127730  0.67265955    -0.09090
C1685       C  0.32836427  0.75276769  0.66231326     0.29770
C1686       C  0.33355209  0.75909642  0.64268466    -0.21050
C1687       C  0.29788991  0.78366973  0.63266926    -0.09100
C1688       C  0.25776185  0.80433255  0.64315755     0.29780
F1689       F  0.22264002  0.82892857  0.63424415    -0.19620
H1690       H  0.22039472  0.81231842  0.67054607     0.18140
H1691       H  0.36534803  0.74374830  0.63519524     0.18150
F1692       F  0.36358259  0.72813819  0.67121223    -0.19610
C1693       C  0.31367978  0.92172030  0.68749548    -0.21050
C1694       C  0.27643803  0.95391553  0.69465297    -0.09090
C1695       C  0.23922712  0.93383003  0.70576081     0.29770
C1696       C  0.23970244  0.88374045  0.70952936    -0.21050
C1697       C  0.27710918  0.85151419  0.70240893    -0.09100
C1698       C  0.31478519  0.87201934  0.69163462     0.29780
F1699       F  0.35378271  0.84445473  0.68557318    -0.19620
H1700       H  0.34306459  0.93557878  0.67898503     0.18140
H1701       H  0.21038041  0.86992155  0.71808012     0.18150
F1702       F  0.20183236  0.96243490  0.71272284    -0.19610
C1703       C  0.24581108  0.67604554  0.68710230    -0.21050
C1704       C  0.27962068  0.70548176  0.69667998    -0.09090
C1705       C  0.31568237  0.68112079  0.70666460     0.29770
C1706       C  0.31706715  0.62989812  0.70726929    -0.21050
C1707       C  0.28260969  0.60032715  0.69807309    -0.09100
C1708       C  0.24664380  0.62480577  0.68799547     0.29780
F1709       F  0.21091342  0.59961827  0.67964112    -0.19620
H1710       H  0.21793373  0.69309668  0.67896688     0.18140
H1711       H  0.34501369  0.61303584  0.71542686     0.18150
F1712       F  0.35055051  0.70668342  0.71546148    -0.19610
C1713       C  0.25313348  0.56909951  0.73627039    -0.21050
C1714       C  0.28082408  0.53780904  0.72375347    -0.09090
C1715       C  0.31270306  0.50440009  0.73178995     0.29770
C1716       C  0.31364439  0.50021080  0.75163209    -0.21050
C1717       C  0.28638498  0.53208360  0.76417284    -0.09100
C1718       C  0.25813028  0.56828581  0.75601381     0.29780
F1719       F  0.24013861  0.60653835  0.76674786    -0.19620
H1720       H  0.23011315  0.59703109  0.73068251     0.18140
H1721       H  0.33793482  0.47338623  0.75700373     0.18150
F1722       F  0.34570501  0.47837127  0.72075878    -0.19610
C1723       C  0.23821036  0.49298403  0.65748693    -0.21050
C1724       C  0.27492188  0.51467911  0.66819396    -0.09090
C1725       C  0.31183815  0.53810139  0.65828853     0.29770
C1726       C  0.31175734  0.53972007  0.63827266    -0.21050
C1727       C  0.27546692  0.51735943  0.62749597    -0.09100
C1728       C  0.23824264  0.49440083  0.63744754     0.29780
F1729       F  0.20115777  0.97388918  0.62796725    -0.19620
H1730       H  0.20935651  0.97429227  0.66477068     0.18140
H1731       H  0.34108945  0.55756912  0.63113033     0.18150
F1732       F  0.34930135  0.55739334  0.66782217    -0.19610
C1733       C  0.05416577  0.75181121  0.76339156    -0.21050
C1734       C  0.01064504  0.77032724  0.77203953    -0.09090
C1735       C  0.97556804  0.78960609  0.75985086     0.29770
C1736       C  0.48435398  0.79010312  0.74029566    -0.21050
C1737       C  0.03043206  0.77944960  0.73256193    -0.09100
C1738       C  0.06562919  0.76040129  0.74432720     0.29780
F1739       F  0.11159626  0.75222687  0.73777703    -0.19620
H1740       H  0.08048306  0.73222651  0.77130680     0.18140
H1741       H  0.45517809  0.80081282  0.73137284     0.18150
F1742       F  0.43299703  0.80984766  0.76649113    -0.19610
C1743       C  0.08872045  0.74901935  0.66713282    -0.21050
C1744       C  0.04931811  0.76544567  0.67871836    -0.09090
C1745       C  0.50825614  0.78586563  0.67055264     0.29770
C1746       C  0.50609863  0.78793271  0.65083597    -0.21050
C1747       C  0.54416432  0.76837017  0.63919318    -0.09100
C1748       C  0.08616861  0.75027432  0.64740381     0.29780
F1749       F  0.12393031  0.73240378  0.63635952    -0.19620
H1750       H  0.12044181  0.73314172  0.67335504     0.18140
H1751       H  0.47327332  0.80150512  0.64464263     0.18150
F1752       F  0.46878063  0.79984415  0.68149407    -0.19610
C1753       C  0.08729007  0.91715335  0.69836781    -0.21050
C1754       C  0.04716426  0.94874298  0.70262925    -0.09090
C1755       C  0.50450484  0.92765437  0.70928762     0.29770
C1756       C  0.50242308  0.87727469  0.71181730    -0.21050
C1757       C  0.04289621  0.84543796  0.70812508    -0.09100
C1758       C  0.08551715  0.86674890  0.70127192     0.29780
F1759       F  0.12582443  0.83884195  0.69747829    -0.19620
H1760       H  0.12036505  0.93169915  0.69265255     0.18140
H1761       H  0.46796833  0.86365268  0.71611822     0.18150
F1762       F  0.46394393  0.95552435  0.71262136    -0.19610
C1763       C  0.50725529  0.67192385  0.69600195    -0.21050
C1764       C  0.04680856  0.69940739  0.70221767    -0.09090
C1765       C  0.08848714  0.67282809  0.70717882     0.29770
C1766       C  0.08810151  0.62192631  0.70849078    -0.21050
C1767       C  0.04777857  0.59468854  0.70320800    -0.09100
C1768       C  0.50798045  0.62060029  0.69608934     0.29780
F1769       F  0.46826355  0.59654698  0.69049684    -0.19620
H1770       H  0.47563758  0.69039959  0.69079957     0.18140
H1771       H  0.11980961  0.60348515  0.71363555     0.18150
F1772       F  0.13071156  0.69554840  0.70970104    -0.19610
C1773       C  0.49041650  0.56249944  0.75888701    -0.21050
C1774       C  0.01515098  0.52781144  0.76906941    -0.09090
C1775       C  0.04871526  0.49616484  0.75933620     0.29770
C1776       C  0.06038280  0.50259547  0.74017759    -0.21050
C1777       C  0.03453676  0.53667246  0.72989930    -0.09100
C1778       C  0.49849736  0.56578227  0.73949011     0.29780
F1779       F  0.46982717  0.59690589  0.73027340    -0.19620
H1780       H  0.46407921  0.58724148  0.76577990     0.18140
H1781       H  0.08893979  0.48021726  0.73335897     0.18150
F1782       F  0.06891896  0.45819786  0.76805151    -0.19610
C1783       C  0.09008974  0.02476239  0.64679751    -0.21050
C1784       C  0.55160654  0.00525238  0.63661909    -0.09090
C1785       C  0.51090184  0.98858490  0.64643031     0.29770
C1786       C  0.50948626  0.98999169  0.66621791    -0.21050
C1787       C  0.54869888  0.00748873  0.67639498    -0.09100
C1788       C  0.08893795  0.02535600  0.66669658     0.29780
F1789       F  0.12764376  0.04115650  0.67640996    -0.19620
H1790       H  0.12161789  0.03786985  0.63933471     0.18140
H1791       H  0.47816647  0.97635002  0.67365281     0.18150
F1792       F  0.47245258  0.97123661  0.63690247    -0.19610
C1793       C  0.04838254  0.50168488  0.69698677     0.00820
C1794       C  0.54424753  0.04218468  0.70927729     0.00820
C1795       C  0.54795716  0.25387001  0.69884438     0.00820
C1796       C  0.54154820  0.29113894  0.71251210     0.00820
C1797       C  0.77655219  0.00737844  0.68934200     0.00820
C1798       C  0.78012419  0.04620832  0.70269866     0.00820
C1799       C  0.78046257  0.26009896  0.69332176     0.00820
C1800       C  0.77731155  0.29766381  0.70743749     0.00820
C1801       C  0.54193249  0.02733337  0.80239857     0.00820
C1802       C  0.50453479  0.02555156  0.78976602     0.00820
C1803       C  0.50091574  0.26997642  0.79329926     0.00820
C1804       C  0.53789722  0.27327237  0.80650803     0.00820
C1805       C  0.79365045  0.03242886  0.78540900     0.00820
C1806       C  0.75492355  0.03871349  0.79841819     0.00820
C1807       C  0.75148278  0.28143673  0.79087461     0.00820
C1808       C  0.78730104  0.28092261  0.80465059     0.00820
C1809       C  0.53510071  0.50648664  0.30412550     0.00820
C1810       C  0.53398781  0.54261806  0.29089195     0.00820
C1811       C  0.53533278  0.25623069  0.30597327     0.00820
C1812       C  0.53790279  0.29219654  0.29267456     0.00820
C1813       C  0.77190215  0.99292746  0.28865218     0.00820
C1814       C  0.76991342  0.02999145  0.30267314     0.00820
C1815       C  0.77495028  0.24313858  0.29167768     0.00820
C1816       C  0.76873749  0.28310508  0.30435325     0.00820
O1817       O  0.01124475  0.55450856  0.39648509    -0.72680
O1818       O  0.01436507  0.54355903  0.45354452    -0.73660
O1819       O  0.07426983  0.08367245  0.42550098    -0.62280
O1820       O  0.94998901  0.51482996  0.42518878    -0.70690
O1821       O  0.49247549  0.44591156  0.42134458    -0.70250
O1822       O  0.61634520  0.01493032  0.42082662    -0.61500
O1823       O  0.55819413  0.47549108  0.44934532    -0.74010
O1824       O  0.55208225  0.48473821  0.39328548    -0.72790
Cu1825     Cu  0.01088379  0.55164541  0.42527584     1.04560
Cu1826     Cu  0.55587690  0.47772692  0.42105904     1.04330
C1827       C  0.03247481  0.52136854  0.38590568     0.93510
C1828       C  0.03761433  0.50804261  0.46032162     0.92650
C1829       C  0.11454053  0.06056820  0.42304668     0.84800
C1830       C  0.95211331  0.46905569  0.42331329     0.91070
O1831       O  0.99959164  0.23872321  0.39624992    -0.72680
O1832       O  0.99591981  0.22285649  0.45278973    -0.73660
O1833       O  0.93579710  0.26869946  0.42692510    -0.62280
O1834       O  0.06003031  0.19345712  0.42217475    -0.70690
O1835       O  0.60190416  0.26016654  0.42599258    -0.70250
O1836       O  0.47839675  0.33514936  0.43027019    -0.61500
O1837       O  0.53816674  0.28942812  0.45662427    -0.74010
O1838       O  0.54233448  0.30503775  0.39931169    -0.72790
Cu1839     Cu  0.99668357  0.22879407  0.42441789     1.04560
Cu1840     Cu  0.54152322  0.29992180  0.42822451     1.04330
C1841       C  0.52146670  0.27358252  0.38868801     0.93510
C1842       C  0.01653972  0.25361485  0.46369397     0.92650
C1843       C  0.43787620  0.31428629  0.42909362     0.84800
C1844       C  0.60024226  0.21482051  0.42339170     0.91070
O1845       O  0.79193561  0.95692593  0.38972952    -0.72680
O1846       O  0.82691624  0.00636796  0.44214490    -0.73660
O1847       O  0.76046036  0.94123000  0.42876219    -0.62280
O1848       O  0.85938000  0.01947599  0.40344138    -0.70690
O1849       O  0.80369205  0.07764253  0.40082824    -0.70250
O1850       O  0.70713372  0.00198140  0.42844230    -0.61500
O1851       O  0.77397445  0.06719461  0.44009400    -0.74010
O1852       O  0.73449667  0.01421843  0.38960879    -0.72790
Cu1853     Cu  0.81150858  0.97870004  0.41610762     1.04560
Cu1854     Cu  0.75310366  0.04227170  0.41467958     1.04330
C1855       C  0.76071933  0.98159566  0.38086136     0.93510
C1856       C  0.80303854  0.04244658  0.44979232     0.92650
C1857       C  0.71910459  0.46017013  0.43339907     0.84800
C1858       C  0.84607812  0.05982595  0.39715280     0.91070
O1859       O  0.73258598  0.24881126  0.39391252    -0.72680
O1860       O  0.77535274  0.20957641  0.44546158    -0.73660
O1861       O  0.69923983  0.26597594  0.43321433    -0.62280
O1862       O  0.80845425  0.19327113  0.40649490    -0.70690
O1863       O  0.85501990  0.25736660  0.40795909    -0.70250
O1864       O  0.74682425  0.32904462  0.43517449    -0.61500
O1865       O  0.82295246  0.27279485  0.44691052    -0.74010
O1866       O  0.77956323  0.31272468  0.39605735    -0.72790
Cu1867     Cu  0.75223237  0.22710937  0.41969145     1.04560
Cu1868     Cu  0.80241376  0.29528669  0.42166166     1.04330
C1869       C  0.75351984  0.28408351  0.38624193     0.93510
C1870       C  0.80382082  0.23684825  0.45477644     0.92650
C1871       C  0.70701367  0.30883576  0.43923699     0.84800
C1872       C  0.84776353  0.21421849  0.40227741     0.91070
O1873       O  0.49902772  0.03559597  0.10562098    -0.72680
O1874       O  0.50931741  0.04176244  0.04877670    -0.73660
O1875       O  0.96840114  0.97829016  0.07417717    -0.62280
O1876       O  0.54171551  0.09871889  0.08034717    -0.70690
O1877       O  0.60930976  0.05444247  0.08107488    -0.70250
O1878       O  0.03656280  0.93469690  0.07183160    -0.61500
O1879       O  0.57985015  0.00168449  0.04820898    -0.74010
O1880       O  0.56498481  0.98846372  0.10480506    -0.72790
Cu1881     Cu  0.50218184  0.04017190  0.07722270     1.04560
Cu1882     Cu  0.57506637  0.99340159  0.07649507     1.04330
C1883       C  0.53049863  0.01085565  0.11419786     0.93510
C1884       C  0.54563780  0.02237693  0.03955008     0.92650
C1885       C  0.99091724  0.93759898  0.07179471     0.84800
C1886       C  0.58718151  0.09533007  0.08199306     0.91070
O1887       O  0.49658707  0.28174167  0.10838796    -0.72680
O1888       O  0.51900493  0.30621260  0.05303455    -0.73660
O1889       O  0.97014149  0.23612035  0.07304401    -0.62280
O1890       O  0.54454196  0.35065778  0.08840631    -0.70690
O1891       O  0.61094134  0.30407311  0.08781477    -0.70250
O1892       O  0.03675211  0.19031453  0.07164588    -0.61500
O1893       O  0.58565151  0.25990581  0.05246477    -0.74010
O1894       O  0.56214751  0.23377611  0.10743269    -0.72790
Cu1895     Cu  0.50507819  0.29520341  0.08070587     1.04560
Cu1896     Cu  0.57618234  0.24544258  0.07986651     1.04330
C1897       C  0.52744488  0.25573611  0.11677696     0.93510
C1898       C  0.55492968  0.28569335  0.04394724     0.92650
C1899       C  0.99187981  0.19543883  0.06943788     0.84800
C1900       C  0.58942529  0.34498840  0.09082575     0.91070
O1901       O  0.75384601  0.02537745  0.04492400    -0.72680
O1902       O  0.75754348  0.01303154  0.10205334    -0.73660
O1903       O  0.71841015  0.08077321  0.07746837    -0.62280
O1904       O  0.79168219  0.95720597  0.06950141    -0.70690
O1905       O  0.85917676  0.99894450  0.07041880    -0.70250
O1906       O  0.78532440  0.12262591  0.07945348    -0.61500
O1907       O  0.82521286  0.05398982  0.10336534    -0.74010
O1908       O  0.82004315  0.06884815  0.04621384    -0.72790
Cu1909     Cu  0.75297810  0.01784659  0.07345064     1.04560
Cu1910     Cu  0.82492716  0.06242008  0.07481617     1.04330
C1911       C  0.78659612  0.04923457  0.03654553     0.93510
C1912       C  0.79159019  0.03142850  0.11177464     0.92650
C1913       C  0.73970222  0.12086944  0.07993189     0.84800
C1914       C  0.83735686  0.95887291  0.06893669     0.91070
O1915       O  0.74110124  0.28703872  0.05442984    -0.72680
O1916       O  0.77159371  0.25479519  0.10786379    -0.73660
O1917       O  0.72017462  0.32906986  0.09160862    -0.62280
O1918       O  0.79337403  0.21403234  0.07088144    -0.70690
O1919       O  0.85899409  0.25837469  0.07007347    -0.70250
O1920       O  0.78465207  0.37479838  0.09010291    -0.61500
O1921       O  0.83578674  0.30147488  0.10714171    -0.74010
O1922       O  0.80665912  0.33158516  0.05295162    -0.72790
Cu1923     Cu  0.75419835  0.26985941  0.08124163     1.04560
Cu1924     Cu  0.82392503  0.31803835  0.07994721     1.04330
C1925       C  0.77046573  0.31233870  0.04499757     0.93510
C1926       C  0.80679119  0.27481193  0.11620671     0.92650
C1927       C  0.74059576  0.36954320  0.09457674     0.84800
C1928       C  0.83808158  0.21821189  0.06725119     0.91070
C1929       C  0.51607618  0.01890920  0.20893496     0.00820
C1930       C  0.55310901  0.01719764  0.19520419     0.00820
C1931       C  0.52051073  0.26234639  0.21069866     0.00820
C1932       C  0.55800674  0.26090272  0.19719855     0.00820
C1933       C  0.80294328  0.01701641  0.20735982     0.00820
C1934       C  0.76733076  0.01825647  0.19382031     0.00820
C1935       C  0.77303114  0.26200761  0.19640098     0.00820
C1936       C  0.80790223  0.25986619  0.21015710     0.00820
O1937       O  0.49149380  0.01255570  0.89301761    -0.72680
O1938       O  0.50855324  0.00060778  0.94902016    -0.73660
O1939       O  0.96032817  0.06624801  0.92630202    -0.62280
O1940       O  0.53951039  0.94707054  0.91507688    -0.70690
O1941       O  0.60524968  0.99067716  0.91464818    -0.70250
O1942       O  0.02699274  0.10857429  0.92427972    -0.61500
O1943       O  0.57405510  0.04486722  0.94781849    -0.74010
O1944       O  0.55836104  0.05523112  0.89176143    -0.72790
Cu1945     Cu  0.49763149  0.00504567  0.92099404     1.04560
Cu1946     Cu  0.56847578  0.05131229  0.91962947     1.04330
C1947       C  0.52301654  0.03517379  0.88353035     0.93510
C1948       C  0.54313462  0.02171979  0.95743179     0.92650
C1949       C  0.98166373  0.10650896  0.92635218     0.84800
C1950       C  0.58483491  0.94994435  0.91309341     0.91070
O1951       O  0.49142163  0.26009343  0.89871686    -0.72680
O1952       O  0.50702006  0.26432652  0.95571560    -0.73660
O1953       O  0.96078496  0.32332059  0.92964462    -0.62280
O1954       O  0.53662048  0.20113117  0.92539582    -0.70690
O1955       O  0.60293185  0.24246833  0.92084278    -0.70250
O1956       O  0.02823904  0.36462058  0.92773393    -0.61500
O1957       O  0.57511505  0.30445417  0.95222213    -0.74010
O1958       O  0.55670092  0.30445192  0.89603100    -0.72790
Cu1959     Cu  0.49646516  0.26076126  0.92747834     1.04560
Cu1960     Cu  0.56810665  0.30535710  0.92405932     1.04330
C1961       C  0.52175393  0.28221689  0.88839462     0.93510
C1962       C  0.54368532  0.28492148  0.96281479     0.92650
C1963       C  0.98264824  0.36326159  0.92940786     0.84800
C1964       C  0.58175038  0.20230528  0.92246621     0.91070
O1965       O  0.74897480  0.08370446  0.88899037    -0.72680
O1966       O  0.75292008  0.08762396  0.94639352    -0.73660
O1967       O  0.78908232  0.14453357  0.91696527    -0.62280
O1968       O  0.71204372  0.02665847  0.91791533    -0.70690
O1969       O  0.77941946  0.98203432  0.91421099    -0.70250
O1970       O  0.85629150  0.09990503  0.91628178    -0.61500
O1971       O  0.81827501  0.03957419  0.94430316    -0.74010
O1972       O  0.81775842  0.04065816  0.88718656    -0.72790
Cu1973     Cu  0.74842815  0.08729474  0.91763559     1.04560
Cu1974     Cu  0.82042777  0.03909540  0.91548666     1.04330
C1975       C  0.78236886  0.06094309  0.87912946     0.93510
C1976       C  0.78597328  0.06337384  0.95437821     0.92650
C1977       C  0.83461030  0.14116371  0.91691904     0.84800
C1978       C  0.73376726  0.98570843  0.91559330     0.91070
O1979       O  0.81107654  0.28416566  0.89652015    -0.72680
O1980       O  0.80954011  0.29489859  0.95427468    -0.73660
O1981       O  0.77358086  0.23228205  0.92683125    -0.62280
O1982       O  0.85011477  0.34868860  0.92482207    -0.70690
O1983       O  0.78335752  0.39406938  0.92683486    -0.70250
O1984       O  0.70575777  0.27546410  0.92476418    -0.61500
O1985       O  0.74035294  0.33696940  0.95406675    -0.74010
O1986       O  0.74651607  0.33282893  0.89645093    -0.72790
Cu1987     Cu  0.81357526  0.28869506  0.92555360     1.04560
Cu1988     Cu  0.74171821  0.33659649  0.92545441     1.04330
C1989       C  0.77811886  0.30576444  0.88733953     0.93510
C1990       C  0.77367159  0.31628565  0.96319877     0.92650
C1991       C  0.72821027  0.23497710  0.92581021     0.84800
C1992       C  0.82895056  0.39006138  0.92639867     0.91070
O1993       O  0.57351170  0.53605146  0.60680497    -0.72680
O1994       O  0.57713411  0.52737956  0.55002722    -0.73660
O1995       O  0.51536189  0.07163136  0.57831758    -0.62280
O1996       O  0.63456402  0.49124787  0.57928630    -0.70690
O1997       O  0.09102329  0.42584288  0.57598313    -0.70250
O1998       O  0.97236267  0.00592736  0.58174010    -0.61500
O1999       O  0.02676605  0.46607668  0.55041666    -0.74010
O2000       O  0.03513619  0.46644969  0.60695373    -0.72790
Cu2001     Cu  0.57673774  0.53389748  0.57855567     1.04560
Cu2002     Cu  0.02986030  0.46351787  0.57876625     1.04330
C2003       C  0.05383275  0.50233593  0.61580138     0.93510
C2004       C  0.05101519  0.49669985  0.54130236     0.92650
C2005       C  0.97501878  0.05118227  0.58071921     0.84800
C2006       C  0.13195518  0.44597032  0.57681447     0.91070
O2007       O  0.55363690  0.22396817  0.60987492    -0.72680
O2008       O  0.53651812  0.20537266  0.55375301    -0.73660
O2009       O  0.60240692  0.25159065  0.57731606    -0.62280
O2010       O  0.48512736  0.17839477  0.58713479    -0.70690
O2011       O  0.94231514  0.24673647  0.59081071    -0.70250
O2012       O  0.05775655  0.31862039  0.57567532    -0.61500
O2013       O  0.98771855  0.27007734  0.55485705    -0.74010
O2014       O  0.01345816  0.29442306  0.61014375    -0.72790
Cu2015     Cu  0.54581967  0.21216738  0.58203488     1.04560
Cu2016     Cu  0.99859682  0.28465275  0.58283783     1.04330
C2017       C  0.03729914  0.26238885  0.61870770     0.93510
C2018       C  0.01060226  0.23616862  0.54534762     0.92650
C2019       C  0.09860499  0.29653213  0.57496708     0.84800
C2020       C  0.94486968  0.20107046  0.59046661     0.91070
O2021       O  0.75580936  0.98796613  0.59534255    -0.72680
O2022       O  0.77084179  0.99632548  0.53745856    -0.73660
O2023       O  0.82312588  0.45205732  0.56614991    -0.62280
O2024       O  0.70283096  0.02769099  0.56477121    -0.70690
O2025       O  0.74184895  0.09483418  0.57126181    -0.70250
O2026       O  0.86603979  0.51839206  0.56879958    -0.61500
O2027       O  0.80975520  0.06495011  0.54209257    -0.74010
O2028       O  0.80084605  0.05264839  0.59858649    -0.72790
Cu2029     Cu  0.76173410  0.98859587  0.56584402     1.04560
Cu2030     Cu  0.80594907  0.06023521  0.57033024     1.04330
C2031       C  0.77692285  0.01922679  0.60614124     0.93510
C2032       C  0.79207306  0.03300388  0.53090295     0.92650
C2033       C  0.86348978  0.47277047  0.56707484     0.84800
C2034       C  0.70246370  0.07256334  0.56844519     0.91070
O2035       O  0.77490465  0.31028645  0.60145722    -0.72680
O2036       O  0.78455618  0.29287353  0.54353816    -0.73660
O2037       O  0.72054902  0.26477054  0.57246401    -0.62280
O2038       O  0.83894660  0.33970278  0.57192872    -0.70690
O2039       O  0.88164630  0.27126098  0.56871371    -0.70250
O2040       O  0.76319556  0.19942319  0.57934720    -0.61500
O2041       O  0.81768146  0.21993309  0.54663079    -0.74010
O2042       O  0.82719840  0.24902495  0.60268333    -0.72790
Cu2043     Cu  0.77806436  0.30461515  0.57227026     1.04560
Cu2044     Cu  0.82398361  0.23276843  0.57451128     1.04330
C2045       C  0.80028194  0.28163229  0.61126410     0.93510
C2046       C  0.80176019  0.25277343  0.53616774     0.92650
C2047       C  0.72298197  0.22071235  0.57647452     0.84800
C2048       C  0.87936207  0.31700114  0.56959421     0.91070
C2049       C  0.91864605  0.42293968  0.58410336    -0.21050
C2050       C  0.90630709  0.44205771  0.56663590    -0.09090
C2051       C  0.91739781  0.41543696  0.54956656     0.29770
C2052       C  0.92841676  0.36630353  0.55047401    -0.21050
C2053       C  0.92278453  0.34522604  0.56817182    -0.09100
C2054       C  0.93006885  0.37395209  0.58470080     0.29780
F2055       F  0.93031249  0.35357349  0.60196887    -0.19620
H2056       H  0.91092076  0.44335721  0.59741456     0.18140
H2057       H  0.92735968  0.34398375  0.53744516     0.18150
F2058       F  0.90600589  0.43343612  0.53249774    -0.19610
C2059       C  0.66488165  0.17708682  0.55773245    -0.21050
C2060       C  0.68033543  0.19226640  0.57587920    -0.09090
C2061       C  0.66714486  0.16636259  0.59187577     0.29770
C2062       C  0.65005767  0.11986162  0.58882186    -0.21050
C2063       C  0.65640413  0.09925643  0.57030291    -0.09100
C2064       C  0.64953314  0.12978813  0.55515597     0.29780
F2065       F  0.64546547  0.11076041  0.53713328    -0.19620
H2066       H  0.67261291  0.19801408  0.54533175     0.18140
H2067       H  0.64865785  0.09668202  0.60088680     0.18150
F2068       F  0.68023320  0.18137507  0.60962315    -0.19610
C2069       C  0.68206420  0.38803279  0.59062983    -0.21050
C2070       C  0.17566614  0.41543715  0.57452551    -0.09090
C2071       C  0.17638295  0.38982630  0.55679604     0.29770
C2072       C  0.15423577  0.34497476  0.55618938    -0.21050
C2073       C  0.14142272  0.32466151  0.57352601    -0.09100
C2074       C  0.66060035  0.34302440  0.59060477     0.29780
F2075       F  0.65084725  0.32207266  0.60740373    -0.19620
H2076       H  0.68906968  0.40580344  0.60425591     0.18140
H2077       H  0.14163387  0.32987202  0.54276797     0.18150
F2078       F  0.18048927  0.41419920  0.54046392    -0.19610
C2079       C  0.41861935  0.09461696  0.60265873    -0.21050
C2080       C  0.93201898  0.08081809  0.58376916    -0.09090
C2081       C  0.91457969  0.10735134  0.56871447     0.29770
C2082       C  0.89323005  0.15256767  0.57303468    -0.21050
C2083       C  0.90098016  0.17295265  0.59132614    -0.09100
C2084       C  0.40014517  0.14137518  0.60643593     0.29780
F2085       F  0.39779519  0.15916536  0.62475016    -0.19620
H2086       H  0.42988695  0.07313958  0.61440252     0.18140
H2087       H  0.88814574  0.17578437  0.56120288     0.18150
F2088       F  0.92536588  0.09348978  0.55024902    -0.19610
C2089       C  0.88790676  0.43856470  0.91211173    -0.21050
C2090       C  0.85878770  0.43248264  0.92839668    -0.09090
C2091       C  0.88057694  0.43590022  0.94621082     0.29770
C2092       C  0.92866335  0.42051082  0.94704423    -0.21050
C2093       C  0.95377899  0.40743781  0.92996190    -0.09100
C2094       C  0.93567597  0.42214051  0.91254089     0.29780
F2095       F  0.95973495  0.41039616  0.89578413    -0.19620
H2096       H  0.87145669  0.44086951  0.89831093     0.18140
H2097       H  0.94284137  0.41050182  0.96062379     0.18150
F2098       F  0.85283014  0.43676549  0.96246559    -0.19610
C2099       C  0.68642684  0.17387837  0.90713053    -0.21050
C2100       C  0.70139082  0.19109129  0.92506544    -0.09090
C2101       C  0.67840953  0.17566373  0.94171948     0.29770
C2102       C  0.63357510  0.15421293  0.93998463    -0.21050
C2103       C  0.61133434  0.15792125  0.92236121    -0.09100
C2104       C  0.64138611  0.15283140  0.90601108     0.29780
F2105       F  0.62174657  0.14588968  0.88863444    -0.19620
H2106       H  0.70543510  0.18333380  0.89414712     0.18140
H2107       H  0.61168073  0.15020133  0.95283338     0.18150
F2108       F  0.69441903  0.18908965  0.95925104    -0.19610
C2109       C  0.87926214  0.18816136  0.93822930    -0.21050
C2110       C  0.86329145  0.18442031  0.91940511    -0.09090
C2111       C  0.89825630  0.18800000  0.90479737     0.29770
C2112       C  0.94350629  0.16738393  0.90782796    -0.21050
C2113       C  0.95306735  0.15050485  0.92596251    -0.09100
C2114       C  0.92375610  0.16603954  0.94171240     0.29780
F2115       F  0.93400965  0.65264642  0.95952669    -0.19620
H2116       H  0.85308904  0.69267519  0.94993410     0.18140
H2117       H  0.96724060  0.15764101  0.89565197     0.18150
F2118       F  0.88466569  0.19403230  0.88660411    -0.19610
C2119       C  0.63985479  0.89930979  0.92740093    -0.21050
C2120       C  0.61567865  0.90652835  0.91041425    -0.09090
C2121       C  0.64466369  0.90780076  0.89372141     0.29770
C2122       C  0.68932949  0.92969788  0.89526139    -0.21050
C2123       C  0.70517526  0.94295344  0.91350865    -0.09100
C2124       C  0.68298244  0.92367104  0.92966296     0.29780
F2125       F  0.69857372  0.93462849  0.94747159    -0.19620
H2126       H  0.61943931  0.89090544  0.94018642     0.18140
H2127       H  0.70737444  0.94249330  0.88259484     0.18150
F2128       F  0.62414274  0.90515689  0.87639799    -0.19610
C2129       C  0.88809012  0.29751028  0.19903218    -0.21050
C2130       C  0.86250617  0.25741538  0.20542568    -0.09090
C2131       C  0.89036209  0.21750237  0.21111222     0.29770
C2132       C  0.94133590  0.21799137  0.21105384    -0.21050
C2133       C  0.96707997  0.25855018  0.20545552    -0.09100
C2134       C  0.93944543  0.29825811  0.19910444     0.29780
F2135       F  0.96161823  0.33967572  0.19476220    -0.19620
H2136       H  0.86825487  0.32974124  0.19528490     0.18140
H2137       H  0.96081861  0.18741221  0.21655139     0.18150
F2138       F  0.86777991  0.17895812  0.21807960    -0.19610
C2139       C  0.64094602  0.22127035  0.19236179    -0.21050
C2140       C  0.61261997  0.25984610  0.20073701    -0.09090
C2141       C  0.63809113  0.29858462  0.20931774     0.29770
C2142       C  0.68982072  0.29861975  0.20890831    -0.21050
C2143       C  0.71781927  0.26028883  0.19982349    -0.09100
C2144       C  0.69182867  0.22139860  0.19181122     0.29780
F2145       F  0.71560366  0.18278422  0.18321580    -0.19620
H2146       H  0.62342666  0.19080496  0.18561135     0.18140
H2147       H  0.70795281  0.32961724  0.21500278     0.18150
F2148       F  0.61319620  0.33758052  0.21717458    -0.19610
C2149       C  0.88593272  0.48712936  0.19264249    -0.21050
C2150       C  0.85726140  0.02244172  0.20316914    -0.09090
C2151       C  0.88208577  0.05815539  0.21368445     0.29770
C2152       C  0.93291238  0.05846402  0.21393596    -0.21050
C2153       C  0.96190192  0.02199399  0.20439567    -0.09100
C2154       C  0.93735152  0.48635203  0.19346688     0.29780
F2155       F  0.96248103  0.44842358  0.18492180    -0.19620
H2156       H  0.86845212  0.45780657  0.18505691     0.18140
H2157       H  0.94980068  0.08600381  0.22274307     0.18150
F2158       F  0.85674142  0.09070850  0.22520478    -0.19610
C2159       C  0.68482219  0.05813282  0.19095680    -0.21050
C2160       C  0.71251814  0.02014275  0.19826196    -0.09090
C2161       C  0.68650713  0.48238133  0.20652459     0.29770
C2162       C  0.63488028  0.48242931  0.20678837    -0.21050
C2163       C  0.60760527  0.01987549  0.19874208    -0.09100
C2164       C  0.63391350  0.05806981  0.19109752     0.29780
F2165       F  0.61016984  0.09526083  0.18314227    -0.19620
H2166       H  0.70302620  0.08748536  0.18427953     0.18140
H2167       H  0.61634854  0.45188480  0.21242420     0.18150
F2168       F  0.71085605  0.44382976  0.21321444    -0.19610
C2169       C  0.78095274  0.27294207  0.99326342    -0.21050
C2170       C  0.77008926  0.31581983  0.98419046    -0.09090
C2171       C  0.75509472  0.35723208  0.99532644     0.29770
C2172       C  0.75482401  0.35668775  0.01531343    -0.21050
C2173       C  0.76633903  0.31382759  0.02425150    -0.09100
C2174       C  0.77781088  0.27166921  0.01312000     0.29780
F2175       F  0.78726458  0.22954026  0.02159413    -0.19620
H2176       H  0.79120280  0.24025650  0.98494608     0.18140
H2177       H  0.74545872  0.38937479  0.02376798     0.18150
F2178       F  0.74168341  0.39828252  0.98689183    -0.19610
C2179       C  0.81106473  0.22637299  0.14529931    -0.21050
C2180       C  0.80973555  0.27150489  0.13696186    -0.09090
C2181       C  0.80173206  0.31363804  0.14859109     0.29770
C2182       C  0.79037663  0.31023128  0.16800679    -0.21050
C2183       C  0.78941696  0.26498850  0.17620510    -0.09100
C2184       C  0.80275577  0.22325611  0.16498515     0.29780
F2185       F  0.80614473  0.17952688  0.17293817    -0.19620
H2186       H  0.81739786  0.19365447  0.13649009     0.18140
H2187       H  0.78137574  0.34279206  0.17660269     0.18150
F2188       F  0.80119599  0.35778920  0.14086979    -0.19610
C2189       C  0.77337641  0.01400982  0.00366150    -0.21050
C2190       C  0.78602794  0.05364185  0.01550936    -0.09090
C2191       C  0.79833550  0.09705696  0.00702659     0.29770
C2192       C  0.79747331  0.10081213  0.98711264    -0.21050
C2193       C  0.78572678  0.06078622  0.97536716    -0.09100
C2194       C  0.77392061  0.01742464  0.98376404     0.29780
F2195       F  0.76233703  0.97865729  0.97254705    -0.19620
H2196       H  0.76396916  0.98012447  0.00981101     0.18140
H2197       H  0.80664692  0.13463876  0.98085003     0.18150
F2198       F  0.81019795  0.13604890  0.01805729    -0.19610
C2199       C  0.76581366  0.98851914  0.14070665    -0.21050
C2200       C  0.79119376  0.02644831  0.13286017    -0.09090
C2201       C  0.81344785  0.05979394  0.14539568     0.29770
C2202       C  0.80765746  0.05632374  0.16531097    -0.21050
C2203       C  0.78042866  0.01909393  0.17299563    -0.09100
C2204       C  0.76054802  0.98459945  0.16041454     0.29780
F2205       F  0.73489133  0.44752550  0.16719347    -0.19620
H2206       H  0.74950101  0.96198775  0.13146167     0.18140
H2207       H  0.82290872  0.08364358  0.17469648     0.18150
F2208       F  0.83873192  0.09694649  0.13847965    -0.19610
C2209       C  0.88506167  0.14981324  0.07681142    -0.21050
C2210       C  0.86767479  0.17597070  0.06163385    -0.09090
C2211       C  0.89534176  0.17684596  0.04459595     0.29770
C2212       C  0.94389932  0.16266744  0.04483523    -0.21050
C2213       C  0.96377458  0.15485360  0.06263200    -0.09100
C2214       C  0.93377401  0.13713371  0.07697549     0.29780
F2215       F  0.95246272  0.12513856  0.09388096    -0.19620
H2216       H  0.86469477  0.14918596  0.09020357     0.18140
H2217       H  0.96722616  0.17234936  0.03300216     0.18150
F2218       F  0.87933679  0.20163688  0.02962903    -0.19610
C2219       C  0.63693463  0.38264412  0.11550459    -0.21050
C2220       C  0.61764485  0.38520026  0.09729395    -0.09090
C2221       C  0.64043056  0.41299983  0.08356226     0.29770
C2222       C  0.68570299  0.43105538  0.08734463    -0.21050
C2223       C  0.71076640  0.41034006  0.10212468    -0.09100
C2224       C  0.68354984  0.39847770  0.11837108     0.29780
F2225       F  0.70624959  0.38425620  0.13417474    -0.19620
H2226       H  0.62000392  0.36092460  0.12620046     0.18140
H2227       H  0.70539082  0.44519495  0.07540908     0.18150
F2228       F  0.62565938  0.41228761  0.06525967    -0.19610
C2229       C  0.56079874  0.24336320  0.01246616    -0.21050
C2230       C  0.55801791  0.28735749  0.02314790    -0.09090
C2231       C  0.55272065  0.33097517  0.01382092     0.29770
C2232       C  0.54954143  0.33020596  0.99393446    -0.21050
C2233       C  0.55001628  0.28591457  0.98342248    -0.09100
C2234       C  0.55610170  0.24251980  0.99273165     0.29780
F2235       F  0.55719988  0.19942689  0.98273235    -0.19620
H2236       H  0.56430374  0.20943634  0.01954028     0.18140
H2237       H  0.54516240  0.36393752  0.98679334     0.18150
F2238       F  0.55058090  0.37394544  0.02390428    -0.19610
C2239       C  0.53769362  0.21464312  0.16711792    -0.21050
C2240       C  0.54521640  0.25906811  0.17684453    -0.09090
C2241       C  0.54221698  0.30202909  0.16700743     0.29770
C2242       C  0.53211193  0.30050997  0.14762624    -0.21050
C2243       C  0.52700682  0.25603060  0.13765868    -0.09100
C2244       C  0.52968377  0.21299537  0.14748053     0.29780
F2245       F  0.02556013  0.16966172  0.13799539    -0.19620
H2246       H  0.03983471  0.18132321  0.17462046     0.18140
H2247       H  0.53130432  0.33391094  0.14010704     0.18150
F2248       F  0.55051948  0.34523506  0.17605027    -0.19610
C2249       C  0.94102584  0.89109828  0.05138814    -0.21050
C2250       C  0.96251306  0.89441448  0.06924733    -0.09090
C2251       C  0.93366059  0.88618143  0.08543837     0.29770
C2252       C  0.88517798  0.89980389  0.08490727    -0.21050
C2253       C  0.86641284  0.91477866  0.06767647    -0.09100
C2254       C  0.89219622  0.90382006  0.05052637     0.29780
F2255       F  0.87364568  0.91583893  0.03358620    -0.19620
H2256       H  0.96314899  0.89250496  0.03847397     0.18140
H2257       H  0.86581039  0.40783936  0.09830983     0.18150
F2258       F  0.95404386  0.38354524  0.10273715    -0.19610
C2259       C  0.63528218  0.15702085  0.06737939    -0.21050
C2260       C  0.61584354  0.13824119  0.08413248    -0.09090
C2261       C  0.63836921  0.14759028  0.10153824     0.29770
C2262       C  0.68541030  0.16458647  0.10113860    -0.21050
C2263       C  0.70972647  0.16452243  0.08335297    -0.09100
C2264       C  0.68213073  0.17422352  0.06743804     0.29780
F2265       F  0.70449573  0.68223819  0.05041319    -0.19620
H2266       H  0.61771117  0.65127334  0.05382602     0.18140
H2267       H  0.70593587  0.16311391  0.11405649     0.18150
F2268       F  0.61907322  0.13180434  0.11808468    -0.19610
C2269       C  0.51026893  0.99673167  0.98885619    -0.21050
C2270       C  0.54609983  0.02046030  0.97847312    -0.09090
C2271       C  0.58265631  0.04452226  0.98853580     0.29770
C2272       C  0.58300623  0.04449212  0.00850333    -0.21050
C2273       C  0.54647182  0.02163021  0.01865677    -0.09100
C2274       C  0.51019613  0.99762830  0.00874574     0.29780
F2275       F  0.97495994  0.97453056  0.01833985    -0.19620
H2276       H  0.98166438  0.97800848  0.98161852     0.18140
H2277       H  0.61112886  0.06320889  0.01606856     0.18150
F2278       F  0.61753876  0.06875294  0.97921841    -0.19610
C2279       C  0.51228913  0.05080176  0.14622760    -0.21050
C2280       C  0.52870696  0.00989904  0.13518247    -0.09090
C2281       C  0.54759456  0.96989111  0.14434983     0.29770
C2282       C  0.55472532  0.97246879  0.16393008    -0.21050
C2283       C  0.54096867  0.01424904  0.17481382    -0.09100
C2284       C  0.51830219  0.05304611  0.16598744     0.29780
F2285       F  0.00418002  0.09371922  0.17631318    -0.19620
H2286       H  0.99672194  0.08171205  0.13946332     0.18140
H2287       H  0.57109174  0.94185403  0.17066045     0.18150
F2288       F  0.55838521  0.92807707  0.13437919    -0.19610
C2289       C  0.84360868  0.26029705  0.48501291    -0.21050
C2290       C  0.81018993  0.23121940  0.47544920    -0.09090
C2291       C  0.77686934  0.20522145  0.48634960     0.29770
C2292       C  0.77471539  0.21173669  0.50626298    -0.21050
C2293       C  0.80518201  0.24445796  0.51543871    -0.09100
C2294       C  0.84081771  0.26732599  0.50481847     0.29780
F2295       F  0.87241791  0.29703586  0.51359253    -0.19620
H2296       H  0.87047746  0.27957910  0.47708085     0.18140
H2297       H  0.74807722  0.19267161  0.51446819     0.18150
F2298       F  0.74432248  0.17609230  0.47781787    -0.19610
C2299       C  0.63874985  0.36130978  0.43787549    -0.21050
C2300       C  0.66970269  0.33757379  0.45006971    -0.09090
C2301       C  0.68876669  0.36582165  0.46506478     0.29770
C2302       C  0.69944641  0.41360923  0.46129140    -0.21050
C2303       C  0.68492806  0.43208357  0.44393642    -0.09100
C2304       C  0.64966691  0.40820002  0.43345654     0.29780
F2305       F  0.63630590  0.42375630  0.41625611    -0.19620
H2306       H  0.61968357  0.34139413  0.42708801     0.18140
H2307       H  0.72555316  0.43244856  0.46993087     0.18150
F2308       F  0.71267696  0.34397326  0.47914309    -0.19610
C2309       C  0.91479860  0.10925413  0.39931457    -0.21050
C2310       C  0.88070254  0.08908025  0.38728620    -0.09090
C2311       C  0.86364963  0.11626183  0.37229597     0.29770
C2312       C  0.86754200  0.16633314  0.37380349    -0.21050
C2313       C  0.88442030  0.18681694  0.39094673    -0.09100
C2314       C  0.91567274  0.15907341  0.40167653     0.29780
F2315       F  0.93204047  0.17693079  0.41844422    -0.19620
H2316       H  0.92900703  0.08889327  0.41065619     0.18140
H2317       H  0.84555227  0.18787731  0.36467327     0.18150
F2318       F  0.83267389  0.09675278  0.35959492    -0.19610
C2319       C  0.75653859  0.04698426  0.48003700    -0.21050
C2320       C  0.80175755  0.04952081  0.47062143    -0.09090
C2321       C  0.84390358  0.04903165  0.48125646     0.29770
C2322       C  0.84063591  0.04507848  0.50110958    -0.21050
C2323       C  0.79545972  0.03946441  0.51027428    -0.09100
C2324       C  0.75335571  0.04128456  0.49967360     0.29780
F2325       F  0.70924395  0.03720593  0.50829943    -0.19620
H2326       H  0.72369232  0.04622007  0.47197703     0.18140
H2327       H  0.87335285  0.04450083  0.50923322     0.18150
F2328       F  0.88786419  0.05148017  0.47239073    -0.19610
C2329       C  0.97636602  0.22434415  0.49343256    -0.21050
C2330       C  0.01532396  0.24750149  0.48458633    -0.09090
C2331       C  0.55304080  0.26448472  0.49590009     0.29770
C2332       C  0.55148292  0.25879237  0.51559918    -0.21050
C2333       C  0.01217789  0.23681509  0.52442395    -0.09100
C2334       C  0.97444176  0.21955377  0.51328821     0.29780
F2335       F  0.93589355  0.19846707  0.52158604    -0.19620
H2336       H  0.94689438  0.21093692  0.48501694     0.18140
H2337       H  0.58069853  0.27248729  0.52410226     0.18150
F2338       F  0.59176240  0.28601442  0.48792277    -0.19610
C2339       C  0.88789388  0.36369212  0.41063900    -0.21050
C2340       C  0.89446030  0.34491103  0.42868525    -0.09090
C2341       C  0.38762287  0.37639039  0.44475467     0.29770
C2342       C  0.39648741  0.42518966  0.44266266    -0.21050
C2343       C  0.90871046  0.44102314  0.42448527    -0.09100
C2344       C  0.89770477  0.41221608  0.40833255     0.29780
F2345       F  0.90771856  0.42747290  0.39052797    -0.19620
H2346       H  0.88965458  0.33980774  0.39798372     0.18140
H2347       H  0.40348773  0.44759524  0.45529260     0.18150
F2348       F  0.38861693  0.35885196  0.46250597    -0.19610
C2349       C  0.16662455  0.11501028  0.43914241    -0.21050
C2350       C  0.15827199  0.08851530  0.42215031    -0.09090
C2351       C  0.66433982  0.11153750  0.40485085     0.29770
C2352       C  0.65559203  0.16123246  0.40499847    -0.21050
C2353       C  0.14431726  0.18565074  0.42247679    -0.09100
C2354       C  0.15751657  0.16466485  0.43949896     0.29780
F2355       F  0.14934824  0.18884342  0.45658286    -0.19620
H2356       H  0.16604805  0.09711442  0.45259873     0.18140
H2357       H  0.64744473  0.17784807  0.39169644     0.18150
F2358       F  0.66158969  0.08576664  0.38803460    -0.19610
C2359       C  0.99940903  0.50896694  0.49269898    -0.21050
C2360       C  0.04117884  0.50452564  0.48099544    -0.09090
C2361       C  0.58630168  0.49658554  0.48917374     0.29770
C2362       C  0.58948128  0.49388304  0.50894011    -0.21050
C2363       C  0.04758622  0.49783166  0.52058694    -0.09100
C2364       C  0.00246904  0.50518186  0.51240317     0.29780
F2365       F  0.96175107  0.51060364  0.52355663    -0.19620
H2366       H  0.96447370  0.51489068  0.48655013     0.18140
H2367       H  0.62448563  0.48856082  0.51517294     0.18150
F2368       F  0.62714817  0.99212778  0.47811735    -0.19610
C2369       C  0.82257523  0.28541306  0.24394078    -0.21050
C2370       C  0.79505520  0.25830332  0.23095061    -0.09090
C2371       C  0.76137167  0.22592678  0.23823087     0.29770
C2372       C  0.75327923  0.22368915  0.25792626    -0.21050
C2373       C  0.78111836  0.25058142  0.27082757    -0.09100
C2374       C  0.81733979  0.28000446  0.26355323     0.29780
F2375       F  0.85017140  0.30055119  0.27515490    -0.19620
H2376       H  0.85034417  0.30899175  0.23884042     0.18140
H2377       H  0.72675139  0.19893534  0.26315809     0.18150
F2378       F  0.73923783  0.19350762  0.22661371    -0.19610
C2379       C  0.80508885  0.27852345  0.33613539    -0.21050
C2380       C  0.76361645  0.27770748  0.32518866    -0.09090
C2381       C  0.71786987  0.28206853  0.33444344     0.29770
C2382       C  0.71381682  0.28424808  0.35444743    -0.21050
C2383       C  0.75548573  0.28625064  0.36532310    -0.09100
C2384       C  0.80118291  0.28402383  0.35597551     0.29780
F2385       F  0.84227593  0.28579105  0.36610045    -0.19620
H2386       H  0.84060947  0.27672914  0.32924543     0.18140
H2387       H  0.67843874  0.28545054  0.36141886     0.18150
F2388       F  0.67734872  0.28508162  0.32408194    -0.19610
C2389       C  0.80999621  0.36474477  0.30389956    -0.21050
C2390       C  0.77033108  0.33609717  0.29886419    -0.09090
C2391       C  0.73052495  0.36005895  0.29102366     0.29770
C2392       C  0.73051344  0.41066895  0.28837257    -0.21050
C2393       C  0.77028975  0.43921214  0.29343211    -0.09100
C2394       C  0.81074077  0.41476074  0.30068947     0.29780
F2395       F  0.85219473  0.43863507  0.30379828    -0.19620
H2396       H  0.84146596  0.34796399  0.30992202     0.18140
H2397       H  0.69930814  0.42767457  0.28221629     0.18150
F2398       F  0.69120437  0.33449966  0.28627768    -0.19610
C2399       C  0.81362102  0.15782341  0.28961837    -0.21050
C2400       C  0.77593068  0.18951245  0.29701079    -0.09090
C2401       C  0.73623410  0.16733886  0.30584592     0.29770
C2402       C  0.73495562  0.11644644  0.30748274    -0.21050
C2403       C  0.77200305  0.08477242  0.29971600    -0.09100
C2404       C  0.81190036  0.10674376  0.29094008     0.29780
F2405       F  0.84974121  0.07897252  0.28382705    -0.19620
H2406       H  0.84444520  0.17280180  0.28231831     0.18140
H2407       H  0.70374171  0.10161459  0.31447648     0.18150
F2408       F  0.69688248  0.19422708  0.31182920    -0.19610
C2409       C  0.75739592  0.04057112  0.23849674    -0.21050
C2410       C  0.79082775  0.01023092  0.22796118    -0.09090
C2411       C  0.81738265  0.47548167  0.23759583     0.29770
C2412       C  0.81192005  0.97211074  0.25725568    -0.21050
C2413       C  0.77845217  0.00181678  0.26790410    -0.09100
C2414       C  0.75026862  0.03562223  0.25824334     0.29780
F2415       F  0.71501227  0.06272693  0.26762675    -0.19620
H2416       H  0.73707026  0.06827540  0.23150505     0.18140
H2417       H  0.83392615  0.44553906  0.26409852     0.18150
F2418       F  0.84912704  0.44447666  0.22805156    -0.19610
C2419       C  0.71928154  0.99091257  0.35014666    -0.21050
C2420       C  0.76183830  0.98114245  0.35991325    -0.09090
C2421       C  0.80681955  0.98708494  0.35057503     0.29770
C2422       C  0.80895895  0.00552731  0.33237774    -0.21050
C2423       C  0.76654943  0.01538854  0.32270873    -0.09100
C2424       C  0.72166881  0.00699992  0.33149224     0.29780
F2425       F  0.68043004  0.01621213  0.32220216    -0.19620
H2426       H  0.68439516  0.98824506  0.35730777     0.18140
H2427       H  0.84384969  0.01228719  0.32579610     0.18150
F2428       F  0.84876534  0.97987901  0.35976599    -0.19610
C2429       C  0.49735766  0.30134623  0.24207009    -0.21050
C2430       C  0.52838283  0.26865200  0.23163424    -0.09090
C2431       C  0.56156480  0.24047770  0.24167079     0.29770
C2432       C  0.56494359  0.24736150  0.26158802    -0.21050
C2433       C  0.53338996  0.28022032  0.27183324    -0.09100
C2434       C  0.49870435  0.30605199  0.26179270     0.29780
F2435       F  0.96588412  0.33641827  0.27108576    -0.19620
H2436       H  0.97099642  0.32316927  0.23495530     0.18140
H2437       H  0.59205195  0.22708087  0.26897019     0.18150
F2438       F  0.58929328  0.20527375  0.23251211    -0.19610
C2439       C  0.56160362  0.29640860  0.33724881    -0.21050
C2440       C  0.52886348  0.26798659  0.32697259    -0.09090
C2441       C  0.49127420  0.24617798  0.33716344     0.29770
C2442       C  0.48849862  0.24986399  0.35705658    -0.21050
C2443       C  0.52257433  0.27594466  0.36748793    -0.09100
C2444       C  0.55836810  0.30071593  0.35734736     0.29780
F2445       F  0.59147737  0.32717701  0.36681262    -0.19620
H2446       H  0.59046633  0.31404453  0.32977175     0.18140
H2447       H  0.95984984  0.23132030  0.36434575     0.18150
F2448       F  0.45742746  0.22025149  0.32787560    -0.19610
C2449       C  0.56862063  0.42703519  0.28785147    -0.21050
C2450       C  0.53351620  0.45170099  0.29967539    -0.09090
C2451       C  0.00144002  0.42280662  0.31021895     0.29770
C2452       C  0.00464747  0.37166964  0.30902707    -0.21050
C2453       C  0.53994801  0.34690268  0.29729044    -0.09100
C2454       C  0.57143463  0.37588318  0.28648871     0.30100
F2455       F  0.60446134  0.35453512  0.27402768    -0.19620
H2456       H  0.59462025  0.44740267  0.27987849     0.18140
H2457       H  0.97808691  0.35145225  0.31676149     0.18150
F2458       F  0.96641698  0.44427884  0.32178192    -0.19610
C2459       C  0.49806374  0.12788060  0.28833689    -0.21050
C2460       C  0.53350854  0.09723944  0.29609627    -0.09090
C2461       C  0.57085060  0.12008119  0.30611271     0.29770
C2462       C  0.57168763  0.17115870  0.30859976    -0.21050
C2463       C  0.53637501  0.20173088  0.30075622    -0.09100
C2464       C  0.49920834  0.17892066  0.29063637     0.29780
F2465       F  0.46279165  0.20581579  0.28356204    -0.19620
H2466       H  0.46911912  0.11199674  0.28029827     0.18140
H2467       H  0.10028401  0.18712555  0.31679505     0.18150
F2468       F  0.10742032  0.09322460  0.31306389    -0.19610
C2469       C  0.56273323  0.05754926  0.25772895    -0.21050
C2470       C  0.53351758  0.03072870  0.26993394    -0.09090
C2471       C  0.00050924  0.49857001  0.26171009     0.29770
C2472       C  0.99861488  0.99221781  0.24190756    -0.21050
C2473       C  0.52643492  0.02050795  0.22974882    -0.09100
C2474       C  0.55780896  0.05422569  0.23797755     0.29780
F2475       F  0.58037558  0.08709466  0.22729564    -0.19620
H2476       H  0.58736675  0.08374687  0.26360290     0.18140
H2477       H  0.97279331  0.46731326  0.23595064     0.18150
F2478       F  0.96756543  0.47601631  0.27265391    -0.19610
C2479       C  0.00513597  0.54958161  0.33469925    -0.21050
C2480       C  0.53906573  0.51865781  0.32483011    -0.09090
C2481       C  0.57305061  0.49286213  0.33523461     0.29770
C2482       C  0.57129065  0.49570500  0.35499964    -0.21050
C2483       C  0.53593716  0.52446275  0.36498579    -0.09100
C2484       C  0.00408176  0.55314783  0.35468349     0.29780
F2485       F  0.97050944  0.58264453  0.36378839    -0.19620
H2486       H  0.97799639  0.56905492  0.32702048     0.18140
H2487       H  0.59689858  0.47384825  0.36251253     0.18150
F2488       F  0.60601147  0.46201893  0.32631353    -0.19610
C2489       C  0.75845973  0.33520113  0.85467201    -0.21050
C2490       C  0.77569237  0.29824904  0.86613256    -0.09090
C2491       C  0.78984509  0.25352509  0.85711869     0.29770
C2492       C  0.78965574  0.24707737  0.83717114    -0.21050
C2493       C  0.77488215  0.28472135  0.82563870    -0.09100
C2494       C  0.75842488  0.32873227  0.83462082     0.29780
F2495       F  0.74551604  0.36648473  0.82396200    -0.19620
H2496       H  0.74685372  0.36982664  0.86119071     0.18140
H2497       H  0.80283770  0.21299924  0.83060371     0.18150
F2498       F  0.80364636  0.21577321  0.86759511    -0.19610
C2499       C  0.78279392  0.00644471  0.82899952    -0.21050
C2500       C  0.76524538  0.04547319  0.81889661    -0.09090
C2501       C  0.75581865  0.09037345  0.82850508     0.29770
C2502       C  0.76193906  0.09550188  0.84816320    -0.21050
C2503       C  0.77898956  0.05635135  0.85831183    -0.09100
C2504       C  0.79022020  0.01190655  0.84856326     0.29780
F2505       F  0.80587208  0.47314764  0.85808844    -0.19620
H2506       H  0.78995644  0.97158324  0.82175772     0.18140
H2507       H  0.75351848  0.13005188  0.85546776     0.18150
F2508       F  0.74093911  0.12925502  0.81889500    -0.19610
C2509       C  0.91729455  0.23213209  0.79168658    -0.21050
C2510       C  0.94695746  0.26907631  0.79922589    -0.09090
C2511       C  0.92285717  0.31018134  0.80789456     0.29770
C2512       C  0.87175061  0.31406282  0.80881071    -0.21050
C2513       C  0.84212958  0.27796558  0.80073531    -0.09100
C2514       C  0.86600388  0.23640465  0.79238902     0.29780
F2515       F  0.83978328  0.19954704  0.78510266    -0.19620
H2516       H  0.93414693  0.20058002  0.78440644     0.18140
H2517       H  0.85500450  0.34617490  0.81571307     0.18150
F2518       F  0.94861109  0.34834693  0.81430350    -0.19610
C2519       C  0.67633888  0.24476380  0.80672389    -0.21050
C2520       C  0.69698627  0.28180385  0.79622112    -0.09090
C2521       C  0.66430531  0.31619751  0.78887130     0.29770
C2522       C  0.61347767  0.31360185  0.79202278    -0.21050
C2523       C  0.59278575  0.27579771  0.80214621    -0.09100
C2524       C  0.62557861  0.24177624  0.80966580     0.29780
F2525       F  0.60843341  0.20454474  0.81962378    -0.19620
H2526       H  0.69959610  0.21702093  0.81226473     0.18140
H2527       H  0.59010969  0.34115797  0.78639480     0.18150
F2528       F  0.68160998  0.35272586  0.77855394    -0.19610
C2529       C  0.53633591  0.31951832  0.83755607    -0.21050
C2530       C  0.52545487  0.27689146  0.82724997    -0.09090
C2531       C  0.50801327  0.23731663  0.83708776     0.29770
C2532       C  0.50409165  0.23987540  0.85711166    -0.21050
C2533       C  0.51771680  0.28179867  0.86743109    -0.09100
C2534       C  0.53200474  0.32222039  0.85741776     0.29780
F2535       F  0.04222055  0.36428479  0.86688984    -0.19620
H2536       H  0.04929519  0.35048995  0.83015939     0.18140
H2537       H  0.49290757  0.20834270  0.86456508     0.18150
F2538       F  0.49782559  0.19541919  0.82744428    -0.19610
C2539       C  0.92380406  0.98360312  0.79249531    -0.21050
C2540       C  0.95044135  0.02600514  0.79533791    -0.09090
C2541       C  0.92343850  0.06987485  0.79833001     0.29770
C2542       C  0.87255201  0.07168058  0.79610527    -0.21050
C2543       C  0.84646742  0.02957068  0.79177286    -0.09100
C2544       C  0.87276824  0.98509236  0.79139004     0.29780
F2545       F  0.84924211  0.44287750  0.78876718    -0.19620
H2546       H  0.94277087  0.44915128  0.79012078     0.18140
H2547       H  0.85376137  0.10645375  0.79690835     0.18150
F2548       F  0.94690782  0.11185290  0.80140039    -0.19610
C2549       C  0.67000858  0.07568569  0.79293618    -0.21050
C2550       C  0.70083063  0.03438285  0.79430504    -0.09090
C2551       C  0.67763595  0.99019843  0.79716571     0.29770
C2552       C  0.62656435  0.98787080  0.79894898    -0.21050
C2553       C  0.59603503  0.02891371  0.79699485    -0.09100
C2554       C  0.61890321  0.07279813  0.79350930     0.29780
F2555       F  0.59184030  0.11390164  0.79206950    -0.19620
H2556       H  0.68505686  0.11123047  0.79243574     0.18140
H2557       H  0.61059589  0.45378449  0.80236257     0.18150
F2558       F  0.70453972  0.44959914  0.79976586    -0.19610
C2559       C  0.50680242  0.99431975  0.85236286    -0.21050
C2560       C  0.52042984  0.03602173  0.86276231    -0.09090
C2561       C  0.53680344  0.07611498  0.85308221     0.29770
C2562       C  0.54162952  0.07358413  0.83328358    -0.21050
C2563       C  0.53057305  0.03104482  0.82296757    -0.09100
C2564       C  0.51230145  0.99158708  0.83251305     0.29780
F2565       F  0.00252275  0.94971643  0.82276364    -0.19620
H2566       H  0.99466842  0.96289510  0.85967062     0.18140
H2567       H  0.55519558  0.10446459  0.82603991     0.18150
F2568       F  0.54899771  0.11730570  0.86277852    -0.19610
C2569       C  0.80136499  0.31704806  0.74153334    -0.21050
C2570       C  0.77414834  0.28861641  0.72873027    -0.09090
C2571       C  0.74155743  0.25618928  0.73677191     0.29770
C2572       C  0.73697952  0.25227395  0.75673390    -0.21050
C2573       C  0.76346950  0.28141453  0.76953811    -0.09100
C2574       C  0.79575080  0.31418114  0.76151397     0.29780
F2575       F  0.81936803  0.34612773  0.77285030    -0.19620
H2576       H  0.82610670  0.34315285  0.73602280     0.18140
H2577       H  0.71089535  0.22748615  0.76226512     0.18150
F2578       F  0.71153815  0.23051535  0.72554325    -0.19610
C2579       C  0.75214463  0.29772026  0.66290630    -0.21050
C2580       C  0.78706791  0.27121982  0.67262500    -0.09090
C2581       C  0.82808326  0.25265241  0.66225449     0.29770
C2582       C  0.83315250  0.25888396  0.64261700    -0.21050
C2583       C  0.79742901  0.28340569  0.63261618    -0.09100
C2584       C  0.75738126  0.30415385  0.64312754     0.29780
F2585       F  0.72222600  0.32873775  0.63422997    -0.19620
H2586       H  0.72018010  0.31228744  0.67054638     0.18140
H2587       H  0.86490483  0.24350171  0.63510957     0.18150
F2588       F  0.86334622  0.22804572  0.67113724    -0.19610
C2589       C  0.81365952  0.42168495  0.68745084    -0.21050
C2590       C  0.77646377  0.45391490  0.69462472    -0.09090
C2591       C  0.73924795  0.43385519  0.70573840     0.29770
C2592       C  0.73968397  0.38376306  0.70950222    -0.21050
C2593       C  0.77704736  0.35150439  0.70236712    -0.09100
C2594       C  0.81471790  0.37197674  0.69157953     0.29780
F2595       F  0.85366941  0.34437258  0.68549645    -0.19620
H2596       H  0.84304455  0.43551908  0.67893357     0.18140
H2597       H  0.71036618  0.36996823  0.71806202     0.18150
F2598       F  0.70188671  0.46248824  0.71271198    -0.19610
C2599       C  0.74567365  0.17601503  0.68711084    -0.21050
C2600       C  0.77950754  0.20546883  0.69666546    -0.09090
C2601       C  0.81560452  0.18113010  0.70663937     0.29770
C2602       C  0.81700064  0.12991049  0.70725602    -0.21050
C2603       C  0.78252163  0.10032284  0.69808213    -0.09100
C2604       C  0.74651914  0.12477925  0.68801600     0.29780
F2605       F  0.71076946  0.09957411  0.67968377    -0.19620
H2606       H  0.71776860  0.19304925  0.67898411     0.18140
H2607       H  0.84497666  0.11306420  0.71540364     0.18150
F2608       F  0.85049723  0.20671096  0.71541215    -0.19610
C2609       C  0.75315521  0.06911756  0.73629549    -0.21050
C2610       C  0.78082721  0.03782546  0.72377202    -0.09090
C2611       C  0.81273859  0.00443690  0.73180344     0.29770
C2612       C  0.81372208  0.00026125  0.75164658    -0.21050
C2613       C  0.78646822  0.03212554  0.76419319    -0.09100
C2614       C  0.75818991  0.06831636  0.75603803     0.29780
F2615       F  0.74020683  0.10656981  0.76677379    -0.19620
H2616       H  0.73011426  0.09703916  0.73071243     0.18140
H2617       H  0.83803669  0.97345150  0.75701361     0.18150
F2618       F  0.84573363  0.97841821  0.72076568    -0.19610
C2619       C  0.73804502  0.99289659  0.65752173    -0.21050
C2620       C  0.77475565  0.01465827  0.66821109    -0.09090
C2621       C  0.81157930  0.03816522  0.65828508     0.29770
C2622       C  0.81139994  0.03981825  0.63827085    -0.21050
C2623       C  0.77510668  0.01740240  0.62751220    -0.09100
C2624       C  0.73798496  0.99433955  0.63748224     0.29780
F2625       F  0.70140093  0.47403095  0.62791481    -0.19620
H2626       H  0.70945071  0.47444891  0.66472232     0.18140
H2627       H  0.84066634  0.05773541  0.63111385     0.18150
F2628       F  0.84905297  0.05751122  0.66779522    -0.19610
C2629       C  0.55415209  0.25181599  0.76334995    -0.21050
C2630       C  0.51064941  0.27035816  0.77200343    -0.09090
C2631       C  0.47558015  0.28967604  0.75982094     0.29770
C2632       C  0.98435498  0.29017399  0.74026655    -0.21050
C2633       C  0.53040937  0.27946702  0.73252214    -0.09100
C2634       C  0.56560360  0.26038859  0.74428287     0.29780
F2635       F  0.61155689  0.25216922  0.73772507    -0.19620
H2636       H  0.58046907  0.23221648  0.77126503     0.18140
H2637       H  0.95515736  0.30093149  0.73134291     0.18150
F2638       F  0.93303015  0.30994853  0.76646893    -0.19610
C2639       C  0.58865918  0.24914881  0.66708641    -0.21050
C2640       C  0.54921944  0.26545710  0.67867439    -0.09090
C2641       C  0.00813475  0.28584982  0.67051495     0.29770
C2642       C  0.00599571  0.28800952  0.65079972    -0.21050
C2643       C  0.04411202  0.26857780  0.63915058    -0.09100
C2644       C  0.58613566  0.25051248  0.64735874     0.29780
F2645       F  0.62395357  0.23278648  0.63631140    -0.19620
H2646       H  0.62040298  0.23330362  0.67330404     0.18140
H2647       H  0.97315614  0.30155731  0.64460975     0.18150
F2648       F  0.96863630  0.29973485  0.68145987    -0.19610
C2649       C  0.58730548  0.41714784  0.69835253    -0.21050
C2650       C  0.54716532  0.44873435  0.70258772    -0.09090
C2651       C  0.00447392  0.42764189  0.70921431     0.29770
C2652       C  0.00238361  0.37726400  0.71173673    -0.21050
C2653       C  0.54286772  0.34543203  0.70807715    -0.09100
C2654       C  0.58551954  0.36674457  0.70125420     0.29780
F2655       F  0.62583865  0.33883690  0.69748733    -0.19620
H2656       H  0.62041117  0.43169930  0.69265995     0.18140
H2657       H  0.96787004  0.36361348  0.71601303     0.18150
F2658       F  0.96390371  0.45551170  0.71252314    -0.19610
C2659       C  0.00719492  0.17191129  0.69599339    -0.21050
C2660       C  0.54676647  0.19941016  0.70217869    -0.09090
C2661       C  0.58846535  0.17284817  0.70712905     0.29770
C2662       C  0.58808779  0.12195247  0.70846401    -0.21050
C2663       C  0.54774760  0.09470044  0.70321436    -0.09100
C2664       C  0.00792437  0.12058986  0.69610280     0.29780
F2665       F  0.96818983  0.09652061  0.69054117    -0.19620
H2666       H  0.97555684  0.19037216  0.69080098     0.18140
H2667       H  0.61981501  0.10352766  0.71360046     0.18150
F2668       F  0.63069569  0.19557952  0.70962156    -0.19610
C2669       C  0.99053556  0.06258733  0.75892957    -0.21050
C2670       C  0.51525835  0.02787659  0.76910446    -0.09090
C2671       C  0.54880334  0.99622230  0.75936472     0.29770
C2672       C  0.56044499  0.00264899  0.74020372    -0.21050
C2673       C  0.53459009  0.03673056  0.72993054    -0.09100
C2674       C  0.99858773  0.06586761  0.73953124     0.29780
F2675       F  0.96991837  0.09700975  0.73032336    -0.19620
H2676       H  0.96422175  0.08734318  0.76582925     0.18140
H2677       H  0.58898315  0.98025824  0.73337870     0.18150
F2678       F  0.56900751  0.95824795  0.76807539    -0.19610
C2679       C  0.59019143  0.52478954  0.64677038    -0.21050
C2680       C  0.05171855  0.50529039  0.63658140    -0.09090
C2681       C  0.01100147  0.48862059  0.64638444     0.29770
C2682       C  0.00956078  0.49001606  0.66617208    -0.21050
C2683       C  0.04875968  0.50750379  0.67636007    -0.09100
C2684       C  0.58901367  0.52537265  0.66667076     0.29780
F2685       F  0.62770592  0.54116996  0.67639372    -0.19620
H2686       H  0.62172734  0.53790289  0.63931465     0.18140
H2687       H  0.97822828  0.47637481  0.67359847     0.18150
F2688       F  0.97255798  0.47128797  0.63684850    -0.19610
C2689       C  0.04835435  0.00169031  0.69702107     0.00820
C2690       C  0.54425174  0.54216093  0.70925193     0.00820
C2691       C  0.54802466  0.75387032  0.69888856     0.00820
C2692       C  0.54158623  0.79113808  0.71255573     0.00820
C2693       C  0.77662912  0.50738565  0.68932263     0.00820
C2694       C  0.78017560  0.54620875  0.70268288     0.00820
C2695       C  0.78059359  0.76011955  0.69335031     0.00820
C2696       C  0.77739645  0.79766904  0.70747318     0.00820
C2697       C  0.54183067  0.52731603  0.80236474     0.00820
C2698       C  0.50443150  0.52551121  0.78973293     0.00820
C2699       C  0.50090929  0.76996285  0.79333628     0.00820
C2700       C  0.53788943  0.77327111  0.80654585     0.00820
C2701       C  0.79355188  0.53238999  0.78538776     0.00820
C2702       C  0.75481838  0.53868107  0.79839239     0.00820
C2703       C  0.75147994  0.78141781  0.79091125     0.00820
C2704       C  0.78729344  0.78090017  0.80468977     0.00820
C2705       C  0.53516628  0.00650825  0.30416943     0.00820
C2706       C  0.53405018  0.04260286  0.29092055     0.00820
C2707       C  0.53539341  0.75623893  0.30601169     0.00820
C2708       C  0.53793971  0.79221243  0.29271459     0.00820
C2709       C  0.77183213  0.49293433  0.28861679     0.00820
C2710       C  0.76983840  0.53000295  0.30263463     0.00820
C2711       C  0.77498964  0.74313036  0.29166253     0.00820
C2712       C  0.76882202  0.78307056  0.30434891     0.00820
O2713       O  0.01148866  0.05486893  0.39653610    -0.72680
O2714       O  0.01435852  0.04366066  0.45360561    -0.73660
O2715       O  0.07414775  0.58344250  0.42536502    -0.62280
O2716       O  0.95008930  0.01509278  0.42517420    -0.70690
O2717       O  0.49259750  0.94618704  0.42131464    -0.70250
O2718       O  0.61621175  0.51468672  0.42071011    -0.61500
O2719       O  0.55819504  0.97560793  0.44937872    -0.74010
O2720       O  0.55233312  0.98510620  0.39333135    -0.72790
Cu2721     Cu  0.01099902  0.05188838  0.42533386     1.04560
Cu2722     Cu  0.55600357  0.97798201  0.42109843     1.04330
C2723       C  0.03273614  0.02174156  0.38595344     0.93510
C2724       C  0.03758809  0.00810983  0.46037030     0.92650
C2725       C  0.11440685  0.56033030  0.42288773     0.84800
C2726       C  0.95222709  0.96931811  0.42327518     0.91070
O2727       O  0.99993432  0.73875056  0.39629886    -0.72680
O2728       O  0.99629379  0.72277643  0.45282543    -0.73660
O2729       O  0.93623540  0.76878371  0.42698389    -0.62280
O2730       O  0.06035609  0.69336067  0.42218232    -0.70690
O2731       O  0.60232550  0.75999883  0.42602977    -0.70250
O2732       O  0.47894251  0.83516280  0.43034861    -0.61500
O2733       O  0.53864368  0.78927371  0.45669158    -0.74010
O2734       O  0.54278791  0.80498962  0.39936301    -0.72790
Cu2735     Cu  0.99705686  0.72878365  0.42445836     1.04560
Cu2736     Cu  0.54200521  0.79983016  0.42828590     1.04330
C2737       C  0.52184535  0.77358610  0.38873749     0.93510
C2738       C  0.01693637  0.75347925  0.46374574     0.92650
C2739       C  0.43839066  0.81436950  0.42915839     0.84800
C2740       C  0.60060235  0.71467088  0.42338440     0.91070
O2741       O  0.79187065  0.45701132  0.38969736    -0.72680
O2742       O  0.82688664  0.50623695  0.44213183    -0.73660
O2743       O  0.76036788  0.44122017  0.42871463    -0.62280
O2744       O  0.85939536  0.51943801  0.40345981    -0.70690
O2745       O  0.80378971  0.57769131  0.40086006    -0.70250
O2746       O  0.70710674  0.50203657  0.42842795    -0.61500
O2747       O  0.77403089  0.56714532  0.44010379    -0.74010
O2748       O  0.73449949  0.51437892  0.38959590    -0.72790
Cu2749     Cu  0.81145797  0.47867114  0.41608464     1.04560
Cu2750     Cu  0.75313253  0.54232484  0.41468112     1.04330
C2751       C  0.76067876  0.48173569  0.38083917     0.93510
C2752       C  0.80308207  0.54234977  0.44978938     0.92650
C2753       C  0.71916133  0.96013321  0.43342397     0.84800
C2754       C  0.84618028  0.55985752  0.39721072     0.91070
O2755       O  0.73323001  0.74835762  0.39391366    -0.72680
O2756       O  0.77597174  0.70969945  0.44553774    -0.73660
O2757       O  0.69969354  0.76569429  0.43316565    -0.62280
O2758       O  0.80925218  0.69319408  0.40661159    -0.70690
O2759       O  0.85556048  0.75748672  0.40799181    -0.70250
O2760       O  0.74704520  0.82895394  0.43507975    -0.61500
O2761       O  0.82335843  0.77308715  0.44692433    -0.74010
O2762       O  0.77993407  0.81248627  0.39601506    -0.72790
Cu2763     Cu  0.75287170  0.72692606  0.41972999     1.04560
Cu2764     Cu  0.80279492  0.79531177  0.42163856     1.04330
C2765       C  0.75399061  0.78370237  0.38622342     0.93510
C2766       C  0.80433986  0.73713524  0.45482784     0.92650
C2767       C  0.70728127  0.80864268  0.43912660     0.84800
C2768       C  0.84848247  0.71425488  0.40237330     0.91070
O2769       O  0.49901258  0.53556498  0.10558769    -0.72680
O2770       O  0.50928669  0.54172809  0.04874440    -0.73660
O2771       O  0.96838343  0.47825374  0.07414585    -0.62280
O2772       O  0.54168741  0.59868819  0.08031214    -0.70690
O2773       O  0.60928467  0.55441613  0.08104141    -0.70250
O2774       O  0.03654812  0.43466627  0.07179594    -0.61500
O2775       O  0.57982592  0.50166163  0.04817446    -0.74010
O2776       O  0.56496993  0.48843318  0.10477146    -0.72790
Cu2777     Cu  0.50215855  0.54013829  0.07718987     1.04560
Cu2778     Cu  0.57504669  0.49337376  0.07646070     1.04330
C2779       C  0.53048684  0.51082924  0.11416466     0.93510
C2780       C  0.54560844  0.52234911  0.03951661     0.92650
C2781       C  0.99090230  0.43756455  0.07176082     0.84800
C2782       C  0.58715351  0.59530205  0.08195938     0.91070
O2783       O  0.49656554  0.78176617  0.10842067    -0.72680
O2784       O  0.51900262  0.80623823  0.05306928    -0.73660
O2785       O  0.97011919  0.73615471  0.07307364    -0.62280
O2786       O  0.54453922  0.85067521  0.08844178    -0.70690
O2787       O  0.61093072  0.80407928  0.08785296    -0.70250
O2788       O  0.03672239  0.69033899  0.07168116    -0.61500
O2789       O  0.58564038  0.75991868  0.05250188    -0.74010
O2790       O  0.56211955  0.73379105  0.10746869    -0.72790
Cu2791     Cu  0.50506614  0.79522916  0.08073916     1.04560
Cu2792     Cu  0.57616214  0.74545630  0.07990325     1.04330
C2793       C  0.52741860  0.75575850  0.11681133     0.93510
C2794       C  0.55492533  0.78571184  0.04398337     0.92650
C2795       C  0.99185364  0.69547147  0.06946717     0.84800
C2796       C  0.58942080  0.84499786  0.09086328     0.91070
O2797       O  0.75383726  0.52539409  0.04488615    -0.72680
O2798       O  0.75752372  0.51303473  0.10201674    -0.73660
O2799       O  0.71838356  0.58077242  0.07743207    -0.62280
O2800       O  0.79167763  0.45721896  0.06946421    -0.70690
O2801       O  0.85916652  0.49896650  0.07038341    -0.70250
O2802       O  0.78529141  0.62263335  0.07942078    -0.61500
O2803       O  0.82518824  0.55400024  0.10333067    -0.74010
O2804       O  0.82002723  0.56887400  0.04618015    -0.72790
Cu2805     Cu  0.75296350  0.51785353  0.07341334     1.04560
Cu2806     Cu  0.82490592  0.56243652  0.07478212     1.04330
C2807       C  0.78658387  0.54926109  0.03650970     0.93510
C2808       C  0.79156638  0.53143629  0.11173918     0.92650
C2809       C  0.73966954  0.62087083  0.07989840     0.84800
C2810       C  0.83735189  0.45889204  0.06890054     0.91070
O2811       O  0.74104861  0.78705508  0.05447154    -0.72680
O2812       O  0.77162434  0.75481119  0.10789132    -0.73660
O2813       O  0.72016827  0.82907892  0.09165346    -0.62280
O2814       O  0.79335902  0.71405811  0.07090885    -0.70690
O2815       O  0.85897204  0.75840813  0.07008423    -0.70250
O2816       O  0.78463844  0.87481461  0.09013559    -0.61500
O2817       O  0.83581437  0.80149570  0.10715536    -0.74010
O2818       O  0.80659748  0.83161340  0.05297979    -0.72790
Cu2819     Cu  0.75418760  0.76987586  0.08127746     1.04560
Cu2820     Cu  0.82390702  0.81806380  0.07996798     1.04330
C2821       C  0.77039826  0.81235783  0.04503389     0.93510
C2822       C  0.80683221  0.77483103  0.11622532     0.92650
C2823       C  0.74058832  0.86955401  0.09461851     0.84800
C2824       C  0.83806096  0.71824235  0.06726811     0.91070
C2825       C  0.51605180  0.51896673  0.20890082     0.00820
C2826       C  0.55309144  0.51724516  0.19517290     0.00820
C2827       C  0.52051567  0.76242211  0.21073343     0.00820
C2828       C  0.55800688  0.76097067  0.19723089     0.00820
C2829       C  0.80292449  0.51704095  0.20732580     0.00820
C2830       C  0.76730983  0.51828455  0.19378700     0.00820
C2831       C  0.77303393  0.76207698  0.19640724     0.00820
C2832       C  0.80790629  0.75993592  0.21016089     0.00820
O2833       O  0.49144599  0.51255095  0.89298628    -0.72680
O2834       O  0.50850995  0.50060706  0.94898720    -0.73660
O2835       O  0.96027354  0.56624186  0.92626928    -0.62280
O2836       O  0.53947936  0.44707263  0.91504604    -0.70690
O2837       O  0.60521223  0.49068921  0.91462221    -0.70250
O2838       O  0.02693270  0.60857118  0.92423410    -0.61500
O2839       O  0.57399736  0.54488738  0.94778624    -0.74010
O2840       O  0.55831866  0.55521718  0.89172649    -0.72790
Cu2841     Cu  0.49758752  0.50504267  0.92096210     1.04560
Cu2842     Cu  0.56842597  0.55131667  0.91959509     1.04330
C2843       C  0.52296873  0.53516483  0.88349741     0.93510
C2844       C  0.54308528  0.52172780  0.95739907     0.92650
C2845       C  0.98160576  0.60650426  0.92631104     0.84800
C2846       C  0.58480469  0.44995327  0.91306660     0.91070
O2847       O  0.49140496  0.76010030  0.89875607    -0.72680
O2848       O  0.50698680  0.76436066  0.95575613    -0.73660
O2849       O  0.96078405  0.82335328  0.92967730    -0.62280
O2850       O  0.53656844  0.70113519  0.92544787    -0.70690
O2851       O  0.60289224  0.74244737  0.92088280    -0.70250
O2852       O  0.02825316  0.86463088  0.92777123    -0.61500
O2853       O  0.57510558  0.80444827  0.95225919    -0.74010
O2854       O  0.55669097  0.80444783  0.89606899    -0.72790
Cu2855     Cu  0.49643833  0.76078163  0.92751908     1.04560
Cu2856     Cu  0.56809614  0.80535079  0.92409715     1.04330
C2857       C  0.52174070  0.78221769  0.88843304     0.93510
C2858       C  0.54366502  0.78493635  0.96285329     0.92650
C2859       C  0.98266105  0.86328671  0.92944243     0.84800
C2860       C  0.58169872  0.70229352  0.92251504     0.91070
O2861       O  0.74890903  0.58371828  0.88895764    -0.72680
O2862       O  0.75291420  0.58768774  0.94635836    -0.73660
O2863       O  0.78904745  0.64457560  0.91690970    -0.62280
O2864       O  0.71201101  0.52669600  0.91789528    -0.70690
O2865       O  0.77938716  0.48207686  0.91418004    -0.70250
O2866       O  0.85625549  0.59994694  0.91623481    -0.61500
O2867       O  0.81825963  0.53962619  0.94426540    -0.74010
O2868       O  0.81770421  0.54068982  0.88714973    -0.72790
Cu2869     Cu  0.74839382  0.58733436  0.91760030     1.04560
Cu2870     Cu  0.82039358  0.53913793  0.91544850     1.04330
C2871       C  0.78230182  0.56095990  0.87909555     0.93510
C2872       C  0.78596574  0.56343271  0.95434191     0.92650
C2873       C  0.83457583  0.64120597  0.91686380     0.84800
C2874       C  0.73373575  0.48574706  0.91556987     0.91070
O2875       O  0.81103187  0.78407901  0.89656570    -0.72680
O2876       O  0.80950293  0.79487331  0.95432106    -0.73660
O2877       O  0.77352884  0.73223583  0.92689512    -0.62280
O2878       O  0.85009418  0.84861937  0.92485917    -0.70690
O2879       O  0.78334672  0.89401446  0.92687620    -0.70250
O2880       O  0.70571886  0.77542477  0.92480265    -0.61500
O2881       O  0.74030869  0.83693068  0.95410412    -0.74010
O2882       O  0.74650205  0.83278150  0.89649132    -0.72790
Cu2883     Cu  0.81353671  0.78863710  0.92560157     1.04560
Cu2884     Cu  0.74169165  0.83655163  0.92549352     1.04330
C2885       C  0.77809182  0.80569776  0.88738216     0.93510
C2886       C  0.77362569  0.81625796  0.96324014     0.92650
C2887       C  0.72816106  0.73493640  0.92586338     0.84800
C2888       C  0.82893901  0.88999604  0.92643791     0.91070
O2889       O  0.57342489  0.03594260  0.60683605    -0.72680
O2890       O  0.57727949  0.02702219  0.55005967    -0.73660
O2891       O  0.51520164  0.57170184  0.57835900    -0.62280
O2892       O  0.63450927  0.99088669  0.57940464    -0.70690
O2893       O  0.09088038  0.92554922  0.57605661    -0.70250
O2894       O  0.97231155  0.50588546  0.58171665    -0.61500
O2895       O  0.02671784  0.96588312  0.55046344    -0.74010
O2896       O  0.03502896  0.96635560  0.60700290    -0.72790
Cu2897     Cu  0.57678639  0.03366222  0.57859013     1.04560
Cu2898     Cu  0.02979037  0.96338365  0.57881549     1.04330
C2899       C  0.05372178  0.00225633  0.61584126     0.93510
C2900       C  0.05105485  0.99642279  0.54134227     0.92650
C2901       C  0.97489605  0.55116292  0.58074966     0.84800
C2902       C  0.13183980  0.94561393  0.57692478     0.91070
O2903       O  0.55355219  0.72363257  0.60994099    -0.72680
O2904       O  0.53647905  0.70508693  0.55381228    -0.73660
O2905       O  0.60239421  0.75115778  0.57739546    -0.62280
O2906       O  0.48499884  0.67815927  0.58719316    -0.70690
O2907       O  0.94229344  0.74654860  0.59092230    -0.70250
O2908       O  0.05779242  0.81820663  0.57569422    -0.61500
O2909       O  0.98763243  0.76975878  0.55491387    -0.74010
O2910       O  0.01354788  0.79417980  0.61018193    -0.72790
Cu2911     Cu  0.54574647  0.71183615  0.58209975     1.04560
Cu2912     Cu  0.99860075  0.78436202  0.58289265     1.04330
C2913       C  0.03731317  0.76211445  0.61875712     0.93510
C2914       C  0.01056667  0.73588036  0.54540284     0.92650
C2915       C  0.09862373  0.79608637  0.57502160     0.84800
C2916       C  0.94477797  0.70088367  0.59056087     0.91070
O2917       O  0.75615589  0.48795954  0.59532964    -0.72680
O2918       O  0.77102897  0.49638487  0.53745348    -0.73660
O2919       O  0.82295345  0.95223057  0.56620861    -0.62280
O2920       O  0.70321361  0.52793285  0.56482475    -0.70690
O2921       O  0.74246519  0.59494762  0.57129235    -0.70250
O2922       O  0.86567175  0.01870235  0.56886918    -0.61500
O2923       O  0.81017523  0.56487563  0.54207940    -0.74010
O2924       O  0.80139332  0.55249791  0.59857140    -0.72790
Cu2925     Cu  0.76199987  0.48862968  0.56583835     1.04560
Cu2926     Cu  0.80644815  0.56012074  0.57031439     1.04330
C2927       C  0.77735597  0.51915550  0.60612647     0.93510
C2928       C  0.79235874  0.53300186  0.53089515     0.92650
C2929       C  0.86324724  0.97306232  0.56715979     0.84800
C2930       C  0.70299823  0.57280379  0.56849806     0.91070
O2931       O  0.77547248  0.81067109  0.60151639    -0.72680
O2932       O  0.78524484  0.79346062  0.54359756    -0.73660
O2933       O  0.72123254  0.76519435  0.57248737    -0.62280
O2934       O  0.83958667  0.84021327  0.57202655    -0.70690
O2935       O  0.88228551  0.77179282  0.56872978    -0.70250
O2936       O  0.76390280  0.69988693  0.57939741    -0.61500
O2937       O  0.81828330  0.72047884  0.54667201    -0.74010
O2938       O  0.82788094  0.74950825  0.60272787    -0.72790
Cu2939     Cu  0.77870894  0.80509761  0.57233061     1.04560
Cu2940     Cu  0.82464529  0.73328165  0.57454847     1.04330
C2941       C  0.80086710  0.78202096  0.61131762     0.93510
C2942       C  0.80239538  0.75335089  0.53621811     0.92650
C2943       C  0.72368356  0.72114254  0.57651025     0.84800
C2944       C  0.88000832  0.81752802  0.56966188     0.91070
C2945       C  0.91849551  0.92338355  0.58423564    -0.21050
C2946       C  0.90612760  0.94245516  0.56676144    -0.09090
C2947       C  0.91752766  0.91596204  0.54968924     0.29770
C2948       C  0.92903002  0.86691955  0.55058671    -0.21050
C2949       C  0.92345097  0.84575520  0.56827013    -0.09100
C2950       C  0.93051755  0.87451833  0.58480804     0.29780
F2951       F  0.93099630  0.85408965  0.60206360    -0.19620
H2952       H  0.91053643  0.94370550  0.59755027     0.18140
H2953       H  0.92825237  0.84460662  0.53754712     0.18150
F2954       F  0.90612966  0.93392646  0.53261488    -0.19610
C2955       C  0.66560825  0.67745457  0.55777580    -0.21050
C2956       C  0.68105985  0.69266205  0.57591908    -0.09090
C2957       C  0.66788587  0.66677048  0.59192225     0.29770
C2958       C  0.65074963  0.62028229  0.58888226    -0.21050
C2959       C  0.65702691  0.59964752  0.57036604    -0.09100
C2960       C  0.65021327  0.63016831  0.55521110     0.29780
F2961       F  0.64612211  0.61112190  0.53719245    -0.19620
H2962       H  0.67334642  0.69836072  0.54536994     0.18140
H2963       H  0.64930824  0.59711682  0.60095196     0.18150
F2964       F  0.68098829  0.68180313  0.60966575    -0.19610
C2965       C  0.68188650  0.88763777  0.59076009    -0.21050
C2966       C  0.17552214  0.91504360  0.57465723    -0.09090
C2967       C  0.17631962  0.88947486  0.55691903     0.29770
C2968       C  0.15426259  0.84458270  0.55628596    -0.21050
C2969       C  0.14145016  0.82419784  0.57360762    -0.09100
C2970       C  0.66054090  0.84257224  0.59070348     0.29780
F2971       F  0.65079777  0.82155177  0.60748938    -0.19620
H2972       H  0.68878317  0.90540483  0.60439797     0.18140
H2973       H  0.14171267  0.82949379  0.54285377     0.18150
F2974       F  0.18041204  0.91389603  0.54059809    -0.19610
C2975       C  0.41853339  0.59448743  0.60273960    -0.21050
C2976       C  0.93186053  0.58072662  0.58383769    -0.09090
C2977       C  0.91435517  0.60729163  0.56880279     0.29770
C2978       C  0.89301751  0.65249813  0.57315054    -0.21050
C2979       C  0.90084570  0.67283773  0.59144172    -0.09100
C2980       C  0.40004850  0.64123414  0.60654059     0.29780
F2981       F  0.39773586  0.65899197  0.62486004    -0.19620
H2982       H  0.42986090  0.57299173  0.61446908     0.18140
H2983       H  0.88793706  0.67574879  0.56133086     0.18150
F2984       F  0.92510795  0.59348949  0.55032782    -0.19610
C2985       C  0.88789041  0.93851290  0.91214995    -0.21050
C2986       C  0.85878446  0.93240914  0.92843661    -0.09090
C2987       C  0.88057332  0.93583686  0.94625070     0.29770
C2988       C  0.92868065  0.92051959  0.94708172    -0.21050
C2989       C  0.95380301  0.90747019  0.92999882    -0.09100
C2990       C  0.93568060  0.92215621  0.91257893     0.29780
F2991       F  0.95974591  0.91043362  0.89582162    -0.19620
H2992       H  0.87143424  0.94078981  0.89834927     0.18140
H2993       H  0.94287215  0.91051990  0.96066021     0.18150
F2994       F  0.85283238  0.93664770  0.96250614    -0.19610
C2995       C  0.68636947  0.67383776  0.90718713    -0.21050
C2996       C  0.70133558  0.69105367  0.92512166    -0.09090
C2997       C  0.67834509  0.67564089  0.94177626     0.29770
C2998       C  0.63350555  0.65420061  0.94004138    -0.21050
C2999       C  0.61127163  0.65790346  0.92241649    -0.09100
C3000       C  0.64132634  0.65279647  0.90606776     0.29780
F3001       F  0.62168886  0.64585070  0.88869068    -0.19620
H3002       H  0.70538051  0.68328605  0.89420334     0.18140
H3003       H  0.61160584  0.65020155  0.95288957     0.18150
F3004       F  0.69435207  0.68907228  0.95930760    -0.19610
C3005       C  0.87922138  0.68820651  0.93817235    -0.21050
C3006       C  0.86325953  0.68446356  0.91934652    -0.09090
C3007       C  0.89823966  0.68802295  0.90474278     0.29770
C3008       C  0.94347566  0.66738105  0.90777890    -0.21050
C3009       C  0.95301127  0.65049931  0.92591499    -0.09100
C3010       C  0.92369731  0.66605435  0.94166142     0.29780
F3011       F  0.93408937  0.15263080  0.95957553    -0.19620
H3012       H  0.85313404  0.19260787  0.94999333     0.18140
H3013       H  0.96721686  0.65762732  0.89560624     0.18150
F3014       F  0.88467077  0.69406903  0.88654789    -0.19610
C3015       C  0.63983442  0.39933142  0.92737650    -0.21050
C3016       C  0.61565816  0.40654360  0.91038923    -0.09090
C3017       C  0.64464478  0.40782190  0.89369699     0.29770
C3018       C  0.68930511  0.42972975  0.89523789    -0.21050
C3019       C  0.70514674  0.44298894  0.91348549    -0.09100
C3020       C  0.68295882  0.42369884  0.92963907     0.29780
F3021       F  0.69855106  0.43465236  0.94744768    -0.19620
H3022       H  0.61941988  0.39092260  0.94016164     0.18140
H3023       H  0.70734853  0.44252854  0.88257160     0.18150
F3024       F  0.62412623  0.40517393  0.87637315    -0.19610
C3025       C  0.88810345  0.79756815  0.19903948    -0.21050
C3026       C  0.86251337  0.75747955  0.20543535    -0.09090
C3027       C  0.89036442  0.71758223  0.21114061     0.29770
C3028       C  0.94133647  0.71807661  0.21109346    -0.21050
C3029       C  0.96708477  0.75862784  0.20549091    -0.09100
C3030       C  0.93945760  0.79832359  0.19912532     0.29780
F3031       F  0.96163337  0.83973649  0.19477916    -0.19620
H3032       H  0.86827197  0.82979125  0.19528093     0.18140
H3033       H  0.96081304  0.68750862  0.21660258     0.18150
F3034       F  0.86777720  0.67905437  0.21811933    -0.19610
C3035       C  0.64094321  0.72134064  0.19238159    -0.21050
C3036       C  0.61262240  0.75991131  0.20076409    -0.09090
C3037       C  0.63809974  0.79864796  0.20934283     0.29770
C3038       C  0.68982945  0.79868576  0.20892513    -0.21050
C3039       C  0.71782177  0.76036149  0.19983223    -0.09100
C3040       C  0.69182563  0.72147368  0.19182121     0.29780
F3041       F  0.71559473  0.68286456  0.18321892    -0.19620
H3042       H  0.62341916  0.69087621  0.18563243     0.18140
H3043       H  0.70796586  0.82968017  0.21501988     0.18150
F3044       F  0.61320979  0.83763996  0.21720559    -0.19610
C3045       C  0.88594883  0.98710850  0.19267296    -0.21050
C3046       C  0.85724062  0.52246927  0.20313292    -0.09090
C3047       C  0.88205882  0.55820150  0.21363999     0.29770
C3048       C  0.93288532  0.55852105  0.21389037    -0.21050
C3049       C  0.96188023  0.52204420  0.20435693    -0.09100
C3050       C  0.93736752  0.98631996  0.19349833     0.29780
F3051       F  0.96249076  0.94839757  0.18494587    -0.19620
H3052       H  0.86846408  0.95779799  0.18508142     0.18140
H3053       H  0.94976960  0.58607404  0.22269231     0.18150
F3054       F  0.85670785  0.59076372  0.22515356    -0.19610
C3055       C  0.68480542  0.55817322  0.19092670    -0.21050
C3056       C  0.71249810  0.52017829  0.19823018    -0.09090
C3057       C  0.68653008  0.98234203  0.20655521     0.29770
C3058       C  0.63490319  0.98238353  0.20681728    -0.21050
C3059       C  0.60758522  0.51992485  0.19871430    -0.09100
C3060       C  0.63389629  0.55811686  0.19106941     0.29780
F3061       F  0.61015506  0.59530956  0.18311414    -0.19620
H3062       H  0.70301186  0.58752406  0.18424907     0.18140
H3063       H  0.61637395  0.95183785  0.21245336     0.18150
F3064       F  0.71088214  0.94379320  0.21324565    -0.19610
C3065       C  0.78089310  0.77292888  0.99330714    -0.21050
C3066       C  0.77002906  0.81580093  0.98423058    -0.09090
C3067       C  0.75501556  0.85721480  0.99536151     0.29770
C3068       C  0.75473663  0.85668191  0.01534814    -0.21050
C3069       C  0.76625718  0.81382940  0.02428972    -0.09100
C3070       C  0.77773982  0.77166559  0.01316333     0.29780
F3071       F  0.78719852  0.72954329  0.02164222    -0.19620
H3072       H  0.79115410  0.74024148  0.98499296     0.18140
H3073       H  0.74536299  0.88937166  0.02379968     0.18150
F3074       F  0.74159258  0.89825525  0.98692253    -0.19610
C3075       C  0.81111737  0.72641163  0.14531853    -0.21050
C3076       C  0.80979190  0.77153850  0.13697788    -0.09090
C3077       C  0.80176985  0.81367884  0.14860069     0.29770
C3078       C  0.79039023  0.81028303  0.16801377    -0.21050
C3079       C  0.78942326  0.76504478  0.17621430    -0.09100
C3080       C  0.80278182  0.72330610  0.16500234     0.29780
F3081       F  0.80616011  0.67958245  0.17296069    -0.19620
H3082       H  0.81746014  0.69368876  0.13651285     0.18140
H3083       H  0.78137654  0.84284741  0.17660561     0.18150
F3084       F  0.80123032  0.85782394  0.14087419    -0.19610
C3085       C  0.77332370  0.51406666  0.00362375    -0.21050
C3086       C  0.78601662  0.55368010  0.01547338    -0.09090
C3087       C  0.79836776  0.59708568  0.00699175     0.29770
C3088       C  0.79750804  0.60084831  0.98707789    -0.21050
C3089       C  0.78571987  0.56083956  0.97533099    -0.09100
C3090       C  0.77386944  0.51748814  0.98372655     0.29780
F3091       F  0.76224631  0.47873621  0.97250864    -0.19620
H3092       H  0.76388262  0.48018892  0.00977166     0.18140
H3093       H  0.80671548  0.63466703  0.98081644     0.18150
F3094       F  0.81027288  0.63606228  0.01802283    -0.19610
C3095       C  0.76577765  0.48854031  0.14067347    -0.21050
C3096       C  0.79116655  0.52646137  0.13282522    -0.09090
C3097       C  0.81342744  0.55980542  0.14535949     0.29770
C3098       C  0.80763773  0.55634079  0.16527505    -0.21050
C3099       C  0.78040402  0.51911698  0.17296162    -0.09100
C3100       C  0.76051471  0.48462463  0.16038179     0.29780
F3101       F  0.73493040  0.94749456  0.16722463    -0.19620
H3102       H  0.74945600  0.46201309  0.13142972     0.18140
H3103       H  0.82289388  0.58366055  0.17465915     0.18150
F3104       F  0.83871795  0.59695194  0.13844198    -0.19610
C3105       C  0.88503052  0.64982893  0.07682193    -0.21050
C3106       C  0.86765197  0.67600241  0.06164689    -0.09090
C3107       C  0.89532771  0.67689442  0.04461187     0.29770
C3108       C  0.94388684  0.66272464  0.04485450    -0.21050
C3109       C  0.96375066  0.65489429  0.06265201    -0.09100
C3110       C  0.93374454  0.63715520  0.07698916     0.29780
F3111       F  0.95242781  0.62513727  0.09389297    -0.19620
H3112       H  0.86465217  0.64918192  0.09021095     0.18140
H3113       H  0.96721986  0.67242246  0.03302575     0.18150
F3114       F  0.87932736  0.70169614  0.02964692    -0.19610
C3115       C  0.63693015  0.88264251  0.11554505    -0.21050
C3116       C  0.61764440  0.88520418  0.09733379    -0.09090
C3117       C  0.64043166  0.91300989  0.08360449     0.29770
C3118       C  0.68569981  0.93107102  0.08739062    -0.21050
C3119       C  0.71076153  0.91034960  0.10216973    -0.09100
C3120       C  0.68354222  0.89848131  0.11841459     0.29780
F3121       F  0.70623885  0.88425918  0.13421885    -0.19620
H3122       H  0.61999776  0.86091940  0.12623930     0.18140
H3123       H  0.70538931  0.94521869  0.07545720     0.18150
F3124       F  0.62566805  0.91229988  0.06530088    -0.19610
C3125       C  0.56078265  0.74337766  0.01250352    -0.21050
C3126       C  0.55801597  0.78737346  0.02318438    -0.09090
C3127       C  0.55272672  0.83099141  0.01385710     0.29770
C3128       C  0.54954084  0.83022140  0.99397107    -0.21050
C3129       C  0.55000036  0.78592926  0.98346020    -0.09100
C3130       C  0.55607849  0.74253383  0.99276948     0.29780
F3131       F  0.55716115  0.69944017  0.98277087    -0.19620
H3132       H  0.56428033  0.70945079  0.01957814     0.18140
H3133       H  0.54516813  0.86395312  0.98682954     0.18150
F3134       F  0.55059903  0.87396253  0.02393991    -0.19610
C3135       C  0.53766532  0.71469689  0.16715682    -0.21050
C3136       C  0.54520745  0.75912564  0.17687768    -0.09090
C3137       C  0.54221954  0.80207922  0.16703558     0.29770
C3138       C  0.53210538  0.80054945  0.14765530    -0.21050
C3139       C  0.52698229  0.75606557  0.13769313    -0.09100
C3140       C  0.52964907  0.71303723  0.14751983     0.29780
F3141       F  0.02551150  0.66969862  0.13803991    -0.19620
H3142       H  0.03979837  0.68138268  0.17466358     0.18140
H3143       H  0.53130587  0.83394457  0.14013223     0.18150
F3144       F  0.55054046  0.84528774  0.17607286    -0.19610
C3145       C  0.94101269  0.39107683  0.05135143    -0.21050
C3146       C  0.96250067  0.39437834  0.06921080    -0.09090
C3147       C  0.93364126  0.38615029  0.08540044     0.29770
C3148       C  0.88516872  0.39981364  0.08487091    -0.21050
C3149       C  0.86641196  0.41480089  0.06764037    -0.09100
C3150       C  0.89219144  0.40383479  0.05048992     0.29780
F3151       F  0.87364925  0.41586881  0.03355013    -0.19620
H3152       H  0.96313813  0.39247393  0.03843742     0.18140
H3153       H  0.86581498  0.90782087  0.09834582     0.18150
F3154       F  0.95406532  0.88360338  0.10277567    -0.19610
C3155       C  0.63524265  0.65701038  0.06735019    -0.21050
C3156       C  0.61581262  0.63821420  0.08410153    -0.09090
C3157       C  0.63833639  0.64756051  0.10150782     0.29770
C3158       C  0.68537305  0.66456853  0.10110916    -0.21050
C3159       C  0.70968736  0.66451849  0.08332336    -0.09100
C3160       C  0.68208757  0.67422381  0.06741000     0.29780
F3161       F  0.70454231  0.18221802  0.05043996    -0.19620
H3162       H  0.61775500  0.15127474  0.05385478     0.18140
H3163       H  0.70589999  0.66309497  0.11402666     0.18150
F3164       F  0.61904343  0.63176442  0.11805316    -0.19610
C3165       C  0.51019160  0.49677557  0.98882388    -0.21050
C3166       C  0.54605316  0.52045988  0.97844004    -0.09090
C3167       C  0.58264815  0.54446326  0.98850146     0.29770
C3168       C  0.58300410  0.54442180  0.00846876    -0.21050
C3169       C  0.54643846  0.52160783  0.01862324    -0.09100
C3170       C  0.51012563  0.49766169  0.00871317     0.29780
F3171       F  0.97486075  0.47460502  0.01830763    -0.19620
H3172       H  0.98155786  0.47809600  0.98158690     0.18140
H3173       H  0.61115681  0.56309368  0.01603309     0.18150
F3174       F  0.61756707  0.56864236  0.97918295    -0.19610
C3175       C  0.51228222  0.55080057  0.14618929    -0.21050
C3176       C  0.52870346  0.50988971  0.13514976    -0.09090
C3177       C  0.54759937  0.46989430  0.14432282     0.29770
C3178       C  0.55472519  0.47249009  0.16390353    -0.21050
C3179       C  0.54096114  0.51427787  0.17478156    -0.09100
C3180       C  0.51829425  0.55306443  0.16594898     0.29780
F3181       F  0.00416860  0.59374582  0.17626837    -0.19620
H3182       H  0.99671267  0.58170288  0.13942019     0.18140
H3183       H  0.57109280  0.44188307  0.17063870     0.18150
F3184       F  0.55840269  0.42807485  0.13435770    -0.19610
C3185       C  0.84406141  0.76089940  0.48504550    -0.21050
C3186       C  0.81072998  0.73166211  0.47550773    -0.09090
C3187       C  0.77751935  0.70559745  0.48643208     0.29770
C3188       C  0.77539394  0.71217468  0.50634223    -0.21050
C3189       C  0.80576525  0.74503676  0.51549091    -0.09100
C3190       C  0.84128673  0.76800313  0.50484834     0.29780
F3191       F  0.87281067  0.79784614  0.51359915    -0.19620
H3192       H  0.87086003  0.78021771  0.47709444     0.18140
H3193       H  0.74885033  0.69303708  0.51456676     0.18150
F3194       F  0.74505576  0.67632230  0.47792669    -0.19610
C3195       C  0.63903350  0.86110958  0.43763697    -0.21050
C3196       C  0.66983510  0.83735042  0.44988488    -0.09090
C3197       C  0.68869128  0.86552781  0.46494422     0.29770
C3198       C  0.69934751  0.91336104  0.46124458    -0.21050
C3199       C  0.68493143  0.93196959  0.44390114    -0.09100
C3200       C  0.64979248  0.90812339  0.43334329     0.29780
F3201       F  0.63646359  0.92390294  0.41617156    -0.19620
H3202       H  0.62024609  0.84123246  0.42675429     0.18140
H3203       H  0.72535580  0.93216873  0.46994198     0.18150
F3204       F  0.71247491  0.84361258  0.47903911    -0.19610
C3205       C  0.91498375  0.60917977  0.39953650    -0.21050
C3206       C  0.88092173  0.58917648  0.38744581    -0.09090
C3207       C  0.86414535  0.61643357  0.37243193     0.29770
C3208       C  0.86842969  0.66646835  0.37390793    -0.21050
C3209       C  0.88523299  0.68688844  0.39107703    -0.09100
C3210       C  0.91622095  0.65898945  0.40185680     0.29780
F3211       F  0.93253748  0.67679163  0.41864348    -0.19620
H3212       H  0.92890565  0.58880308  0.41091396     0.18140
H3213       H  0.84670211  0.68811997  0.36472795     0.18150
F3214       F  0.83318599  0.59708538  0.35968623    -0.19610
C3215       C  0.75671459  0.54738217  0.48006916    -0.21050
C3216       C  0.80192777  0.54947450  0.47061577    -0.09090
C3217       C  0.84412452  0.54859194  0.48121537     0.29770
C3218       C  0.84090921  0.54465720  0.50106888    -0.21050
C3219       C  0.79571155  0.53947219  0.51026965    -0.09100
C3220       C  0.75356616  0.54171466  0.49970802     0.29780
F3221       F  0.70944656  0.53806076  0.50837349    -0.19620
H3222       H  0.72381849  0.54692709  0.47203863     0.18140
H3223       H  0.87366253  0.54376000  0.50916446     0.18150
F3224       F  0.88807680  0.55063058  0.47231192    -0.19610
C3225       C  0.97648841  0.72437392  0.49345710    -0.21050
C3226       C  0.01561621  0.74732951  0.48463807    -0.09090
C3227       C  0.55338690  0.76407493  0.49597760     0.29770
C3228       C  0.55171765  0.75833982  0.51567613    -0.21050
C3229       C  0.01223588  0.73657165  0.52447593    -0.09100
C3230       C  0.97444641  0.71955714  0.51331142     0.29780
F3231       F  0.93574176  0.69866679  0.52157936    -0.19620
H3232       H  0.94697607  0.71114939  0.48502033     0.18140
H3233       H  0.58098178  0.77184355  0.52419905     0.18150
F3234       F  0.59226203  0.78540206  0.48802515    -0.19610
C3235       C  0.88844893  0.86373660  0.41065307    -0.21050
C3236       C  0.89504193  0.84507296  0.42871882    -0.09090
C3237       C  0.38814689  0.87660989  0.44476940     0.29770
C3238       C  0.39668310  0.92545505  0.44263523    -0.21050
C3239       C  0.90884216  0.94125207  0.42444725    -0.09100
C3240       C  0.89797103  0.91231044  0.40831477     0.29780
F3241       F  0.90791521  0.92753217  0.39049941    -0.19620
H3242       H  0.89035086  0.83980091  0.39801295     0.18140
H3243       H  0.40358327  0.94796109  0.45524902     0.18150
F3244       F  0.38932840  0.85918214  0.46253540    -0.19610
C3245       C  0.16673455  0.61460937  0.43894264    -0.21050
C3246       C  0.15812737  0.58826363  0.42194112    -0.09090
C3247       C  0.66410007  0.61135374  0.40465441     0.29770
C3248       C  0.65565752  0.66109819  0.40486092    -0.21050
C3249       C  0.14465231  0.68545943  0.42237474    -0.09100
C3250       C  0.15794062  0.66431231  0.43935169     0.29780
F3251       F  0.15007094  0.68843490  0.45646453    -0.19620
H3252       H  0.16616344  0.59663946  0.45238236     0.18140
H3253       H  0.64746063  0.67784013  0.39158948     0.18150
F3254       F  0.66104253  0.58569433  0.38782511    -0.19610
C3255       C  0.99944251  0.00941515  0.49277599    -0.21050
C3256       C  0.04113976  0.00450027  0.48104543    -0.09090
C3257       C  0.58619902  0.99598852  0.48919801     0.29770
C3258       C  0.58939882  0.99318116  0.50895885    -0.21050
C3259       C  0.04757398  0.99759411  0.52063022    -0.09100
C3260       C  0.00251002  0.00551332  0.51247628     0.29780
F3261       F  0.96187125  0.01135808  0.52365477    -0.19620
H3262       H  0.96455225  0.01579756  0.48665182     0.18140
H3263       H  0.62436607  0.98743244  0.51516916     0.18150
F3264       F  0.62730220  0.49316493  0.47811141    -0.19610
C3265       C  0.82255977  0.78548778  0.24393931    -0.21050
C3266       C  0.79505204  0.75836903  0.23094920    -0.09090
C3267       C  0.76138915  0.72596607  0.23822352     0.29770
C3268       C  0.75330148  0.72371004  0.25791646    -0.21050
C3269       C  0.78113813  0.75060089  0.27081802    -0.09100
C3270       C  0.81734268  0.78004952  0.26354852     0.29780
F3271       F  0.85018062  0.80058620  0.27515003    -0.19620
H3272       H  0.85031441  0.80908512  0.23884058     0.18140
H3273       H  0.72678651  0.69893923  0.26314545     0.18150
F3274       F  0.73927773  0.69353836  0.22660267    -0.19610
C3275       C  0.80532612  0.77832377  0.33609102    -0.21050
C3276       C  0.76379661  0.77759307  0.32517788    -0.09090
C3277       C  0.71808953  0.78189141  0.33446456     0.29770
C3278       C  0.71412963  0.78393562  0.35446857    -0.21050
C3279       C  0.75585556  0.78586561  0.36531024    -0.09100
C3280       C  0.80151196  0.78370420  0.35593371     0.29780
F3281       F  0.84264914  0.78546518  0.36603197    -0.19620
H3282       H  0.84081570  0.77656919  0.32917461     0.18140
H3283       H  0.67878380  0.78511595  0.36146681     0.18150
F3284       F  0.67752196  0.78499081  0.32413530    -0.19610
C3285       C  0.81006350  0.86472350  0.30392138    -0.21050
C3286       C  0.77040108  0.83607877  0.29887975    -0.09090
C3287       C  0.73059697  0.86004657  0.29104050     0.29770
C3288       C  0.73058322  0.91066070  0.28839844    -0.21050
C3289       C  0.77035791  0.93920098  0.29346328    -0.09100
C3290       C  0.81080936  0.91474184  0.30071693     0.29780
F3291       F  0.85226872  0.93860847  0.30382371    -0.19620
H3292       H  0.84153608  0.84793734  0.30993940     0.18140
H3293       H  0.69937964  0.92767122  0.28224288     0.18150
F3294       F  0.69128207  0.83448856  0.28628553    -0.19610
C3295       C  0.81364625  0.65781248  0.28961385    -0.21050
C3296       C  0.77593762  0.68950377  0.29698597    -0.09090
C3297       C  0.73618726  0.66734114  0.30578626     0.29770
C3298       C  0.73487787  0.61645131  0.30741544    -0.21050
C3299       C  0.77195010  0.58477432  0.29967341    -0.09100
C3300       C  0.81189688  0.60673364  0.29092812     0.29780
F3301       F  0.84975581  0.57895081  0.28383924    -0.19620
H3302       H  0.84450645  0.67278861  0.28233689     0.18140
H3303       H  0.70362592  0.60162388  0.31438386     0.18150
F3304       F  0.69681882  0.69424262  0.31174038    -0.19610
C3305       C  0.75736656  0.54059002  0.23846130    -0.21050
C3306       C  0.79081081  0.51025867  0.22792812    -0.09090
C3307       C  0.81739992  0.97545088  0.23762661     0.29770
C3308       C  0.81188049  0.47212839  0.25722405    -0.21050
C3309       C  0.77839695  0.50182342  0.26786910    -0.09100
C3310       C  0.75022065  0.53563084  0.25820629     0.29780
F3311       F  0.71495126  0.56272628  0.26758587    -0.19620
H3312       H  0.73704255  0.56829409  0.23146887     0.18140
H3313       H  0.83396965  0.94552092  0.26412806     0.18150
F3314       F  0.84912749  0.94443405  0.22807920    -0.19610
C3315       C  0.71921723  0.49103571  0.35012674    -0.21050
C3316       C  0.76178109  0.48129470  0.35989272    -0.09090
C3317       C  0.80675878  0.48723298  0.35055171     0.29770
C3318       C  0.80889013  0.50561781  0.33234555    -0.21050
C3319       C  0.76647607  0.51542760  0.32267263    -0.09100
C3320       C  0.72159704  0.50706566  0.33146357     0.29780
F3321       F  0.68035384  0.51625147  0.32217256    -0.19620
H3322       H  0.68433266  0.48837825  0.35729153     0.18140
H3323       H  0.84377758  0.51236827  0.32575910     0.18150
F3324       F  0.84870782  0.48006218  0.35974470    -0.19610
C3325       C  0.49737970  0.80141247  0.24211009    -0.21050
C3326       C  0.52839376  0.76871588  0.23166974    -0.09090
C3327       C  0.56156786  0.74052376  0.24170265     0.29770
C3328       C  0.56494921  0.74738868  0.26162085    -0.21050
C3329       C  0.53340997  0.78025207  0.27187137    -0.09100
C3330       C  0.49873463  0.80610771  0.26183381     0.29780
F3331       F  0.96593323  0.83648697  0.27113110    -0.19620
H3332       H  0.97102277  0.82324617  0.23499741     0.18140
H3333       H  0.59205140  0.72709151  0.26899968     0.18150
F3334       F  0.58928664  0.70532008  0.23253895    -0.19610
C3335       C  0.56183491  0.79637575  0.33727302    -0.21050
C3336       C  0.52901936  0.76799832  0.32701550    -0.09090
C3337       C  0.49143665  0.74624382  0.33722783     0.29770
C3338       C  0.48873330  0.74994068  0.35712209    -0.21050
C3339       C  0.52288679  0.77596649  0.36753571    -0.09100
C3340       C  0.55868339  0.80068071  0.35737411     0.29780
F3341       F  0.59187276  0.82708016  0.36682014    -0.19620
H3342       H  0.59069017  0.81397747  0.32977830     0.18140
H3343       H  0.96007969  0.73144151  0.36442637     0.18150
F3344       F  0.45752496  0.72036087  0.32795913    -0.19610
C3345       C  0.56868308  0.92704721  0.28790047    -0.21050
C3346       C  0.53359834  0.95171484  0.29973372    -0.09090
C3347       C  0.00154296  0.92282200  0.31028723     0.29770
C3348       C  0.00473682  0.87168337  0.30908853    -0.21050
C3349       C  0.54000802  0.84691498  0.29733737    -0.09100
C3350       C  0.57148778  0.87589544  0.28653304     0.30100
F3351       F  0.60449743  0.85454807  0.27406459    -0.19620
H3352       H  0.59467141  0.94741324  0.27992124     0.18140
H3353       H  0.97818704  0.85146655  0.31682895     0.18150
F3354       F  0.96654676  0.94429655  0.32186260    -0.19610
C3355       C  0.49803568  0.62792869  0.28834100    -0.21050
C3356       C  0.53346269  0.59724704  0.29609004    -0.09090
C3357       C  0.57080323  0.62004834  0.30612187     0.29770
C3358       C  0.57166690  0.67112248  0.30862696    -0.21050
C3359       C  0.53637915  0.70173671  0.30079011    -0.09100
C3360       C  0.49920134  0.67896630  0.29066183     0.29780
F3361       F  0.46279892  0.70589633  0.28359582    -0.19620
H3362       H  0.46908822  0.61207939  0.28029356     0.18140
H3363       H  0.10026990  0.68705295  0.31682933     0.18150
F3364       F  0.10735125  0.59315583  0.31306903    -0.19610
C3365       C  0.56266401  0.55761624  0.25770234    -0.21050
C3366       C  0.53344543  0.53078541  0.26990257    -0.09090
C3367       C  0.00057675  0.99850943  0.26174718     0.29770
C3368       C  0.99856454  0.49228015  0.24187046    -0.21050
C3369       C  0.52639562  0.52056963  0.22971594    -0.09100
C3370       C  0.55776029  0.55429008  0.23794930     0.29780
F3371       F  0.58034263  0.58715286  0.22726938    -0.19620
H3372       H  0.58729254  0.58381257  0.26358067     0.18140
H3373       H  0.97283810  0.96725168  0.23599125     0.18150
F3374       F  0.96764379  0.97595657  0.27269634    -0.19610
C3375       C  0.00529166  0.04975560  0.33473346    -0.21050
C3376       C  0.53915651  0.01874063  0.32487095    -0.09090
C3377       C  0.57315279  0.99297890  0.33528150     0.29770
C3378       C  0.57147402  0.99595433  0.35504598    -0.21050
C3379       C  0.53618523  0.02480392  0.36502899    -0.09100
C3380       C  0.00431752  0.05345257  0.35471733     0.29780
F3381       F  0.97080434  0.08303675  0.36381336    -0.19620
H3382       H  0.97814413  0.06921092  0.32705235     0.18140
H3383       H  0.59707981  0.97410715  0.36256345     0.18150
F3384       F  0.60605438  0.96205134  0.32637169    -0.19610
C3385       C  0.75848494  0.83517038  0.85471527    -0.21050
C3386       C  0.77567089  0.79819338  0.86617409    -0.09090
C3387       C  0.78977847  0.75346024  0.85715718     0.29770
C3388       C  0.78959798  0.74702711  0.83720832    -0.21050
C3389       C  0.77486905  0.78469356  0.82567808    -0.09100
C3390       C  0.75845252  0.82871440  0.83466358     0.29780
F3391       F  0.74558603  0.86648630  0.82400763    -0.19620
H3392       H  0.74691270  0.86980391  0.86123607     0.18140
H3393       H  0.80274738  0.71293997  0.83063856     0.18150
F3394       F  0.80352047  0.71568482  0.86763209    -0.19610
C3395       C  0.78267926  0.50642362  0.82897510    -0.21050
C3396       C  0.76513298  0.54544825  0.81886980    -0.09090
C3397       C  0.75571933  0.59035668  0.82847301     0.29770
C3398       C  0.76185333  0.59549874  0.84812947    -0.21050
C3399       C  0.77890550  0.55635324  0.85828024    -0.09100
C3400       C  0.79012017  0.51189902  0.84853682     0.29780
F3401       F  0.80597141  0.97314926  0.85811153    -0.19620
H3402       H  0.78983310  0.47155677  0.82173642     0.18140
H3403       H  0.75344398  0.63005508  0.85543088     0.18150
F3404       F  0.74084338  0.62923291  0.81885909    -0.19610
C3405       C  0.91728904  0.73211353  0.79172910    -0.21050
C3406       C  0.94695077  0.76906486  0.79926347    -0.09090
C3407       C  0.92284898  0.81017287  0.80792921     0.29770
C3408       C  0.87174184  0.81404934  0.80884790    -0.21050
C3409       C  0.84212238  0.77794562  0.80077622    -0.09100
C3410       C  0.86599834  0.73638308  0.79243242     0.29780
F3411       F  0.83977880  0.69952238  0.78514812    -0.19620
H3412       H  0.93414221  0.70056034  0.78445028     0.18140
H3413       H  0.85499447  0.84616342  0.81574816     0.18150
F3414       F  0.94860152  0.84834386  0.81433395    -0.19610
C3415       C  0.67632995  0.74474711  0.80675810    -0.21050
C3416       C  0.69698160  0.78178600  0.79625573    -0.09090
C3417       C  0.66430397  0.81618769  0.78890919     0.29770
C3418       C  0.61347580  0.81360001  0.79206303    -0.21050
C3419       C  0.59277957  0.77579555  0.80218531    -0.09100
C3420       C  0.62556924  0.74176622  0.80970168     0.29780
F3421       F  0.60842000  0.70453265  0.81965749    -0.19620
H3422       H  0.69958421  0.71700050  0.81229768     0.18140
H3423       H  0.59011051  0.84116121  0.78643702     0.18150
F3424       F  0.68161244  0.85271811  0.77859397    -0.19610
C3425       C  0.53632994  0.81951802  0.83759417    -0.21050
C3426       C  0.52544464  0.77689284  0.82728779    -0.09090
C3427       C  0.50799611  0.73732061  0.83712548     0.29770
C3428       C  0.50407313  0.73987944  0.85714942    -0.21050
C3429       C  0.51770349  0.78180016  0.86746922    -0.09100
C3430       C  0.53199733  0.82222021  0.85745593     0.29780
F3431       F  0.04221785  0.86428299  0.86692828    -0.19620
H3432       H  0.04929384  0.85048799  0.83019783     0.18140
H3433       H  0.49288450  0.70834805  0.86460248     0.18150
F3434       F  0.49780278  0.69542486  0.82748188    -0.19610
C3435       C  0.92370108  0.48356767  0.79247500    -0.21050
C3436       C  0.95034071  0.52597141  0.79530789    -0.09090
C3437       C  0.92334160  0.56984387  0.79829662     0.29770
C3438       C  0.87245374  0.57164862  0.79607707    -0.21050
C3439       C  0.84636571  0.52953564  0.79175435    -0.09100
C3440       C  0.87266454  0.48505692  0.79137603     0.29780
F3441       F  0.84934889  0.94291379  0.78877309    -0.19620
H3442       H  0.94287611  0.94918876  0.79013831     0.18140
H3443       H  0.85366432  0.60642218  0.79687569     0.18150
F3444       F  0.94681499  0.61182310  0.80135755    -0.19610
C3445       C  0.66990975  0.57565564  0.79290097    -0.21050
C3446       C  0.70072817  0.53435214  0.79427531    -0.09090
C3447       C  0.67752995  0.49017141  0.79713889     0.29770
C3448       C  0.62645839  0.48784789  0.79892026    -0.21050
C3449       C  0.59593249  0.52889027  0.79696020    -0.09100
C3450       C  0.61880418  0.57277122  0.79347162     0.29780
F3451       F  0.59174450  0.61387557  0.79202798    -0.19620
H3452       H  0.68496019  0.61119913  0.79239909     0.18140
H3453       H  0.61070483  0.95380351  0.80238775     0.18150
F3454       F  0.70464948  0.94962529  0.79978711    -0.19610
C3455       C  0.50670641  0.49432673  0.85233214    -0.21050
C3456       C  0.52037176  0.53601659  0.86272999    -0.09090
C3457       C  0.53676527  0.57609972  0.85304836     0.29770
C3458       C  0.54157028  0.57356922  0.83324918    -0.21050
C3459       C  0.53047700  0.53103906  0.82293427    -0.09100
C3460       C  0.51218842  0.49159253  0.83248206     0.29780
F3461       F  0.00238116  0.44972721  0.82273442    -0.19620
H3462       H  0.99455737  0.46290953  0.85964085     0.18140
H3463       H  0.55515236  0.60444075  0.82600428     0.18150
F3464       F  0.54900268  0.61727809  0.86274344    -0.19610
C3465       C  0.80139392  0.81705323  0.74157641    -0.21050
C3466       C  0.77420697  0.78861024  0.72876614    -0.09090
C3467       C  0.74161953  0.75616873  0.73680154     0.29770
C3468       C  0.73701337  0.75225624  0.75676418    -0.21050
C3469       C  0.76347851  0.78140520  0.76957468    -0.09100
C3470       C  0.79575676  0.81418348  0.76155645     0.29780
F3471       F  0.81934976  0.84613783  0.77289807    -0.19620
H3472       H  0.82613217  0.84316882  0.73607160     0.18140
H3473       H  0.71093158  0.72745926  0.76229055     0.18150
F3474       F  0.71163224  0.73047527  0.72556562    -0.19610
C3475       C  0.75240886  0.79779994  0.66292554    -0.21050
C3476       C  0.78728623  0.77127739  0.67265930    -0.09090
C3477       C  0.82836428  0.75276699  0.66231296     0.29770
C3478       C  0.83355214  0.75909557  0.64268435    -0.21050
C3479       C  0.79789043  0.78366965  0.63266897    -0.09100
C3480       C  0.75776280  0.80433325  0.64315731     0.29780
F3481       F  0.72264151  0.82893016  0.63424397    -0.19620
H3482       H  0.72039584  0.81231976  0.67054584     0.18140
H3483       H  0.86534775  0.74374674  0.63519490     0.18150
F3484       F  0.86358220  0.72813685  0.67121191    -0.19610
C3485       C  0.81367990  0.92172068  0.68749524    -0.21050
C3486       C  0.77643825  0.95391592  0.69465280    -0.09090
C3487       C  0.73922740  0.93383040  0.70576067     0.29770
C3488       C  0.73970272  0.88374081  0.70952920    -0.21050
C3489       C  0.77710937  0.85151452  0.70240871    -0.09100
C3490       C  0.81478530  0.87201968  0.69163434     0.29780
F3491       F  0.85378272  0.84445504  0.68557282    -0.19620
H3492       H  0.84306466  0.93557916  0.67898477     0.18140
H3493       H  0.71038075  0.86992192  0.71807999     0.18150
F3494       F  0.70183272  0.96243528  0.71272278    -0.19610
C3495       C  0.74581093  0.67604590  0.68710220    -0.21050
C3496       C  0.77962066  0.70548205  0.69667983    -0.09090
C3497       C  0.81568224  0.68112102  0.70666449     0.29770
C3498       C  0.81706678  0.62989837  0.70726926    -0.21050
C3499       C  0.78260920  0.60032746  0.69807311    -0.09100
C3500       C  0.74664340  0.62480614  0.68799546     0.29780
F3501       F  0.71091290  0.59961873  0.67964114    -0.19620
H3502       H  0.71793366  0.69309708  0.67896675     0.18140
H3503       H  0.84501328  0.61303606  0.71542685     0.18150
F3504       F  0.85055049  0.70668358  0.71546133    -0.19610
C3505       C  0.75313320  0.56909991  0.73627048    -0.21050
C3506       C  0.78082373  0.53780945  0.72375352    -0.09090
C3507       C  0.81270281  0.50440054  0.73178997     0.29770
C3508       C  0.81364425  0.50021121  0.75163211    -0.21050
C3509       C  0.78638485  0.53208395  0.76417289    -0.09100
C3510       C  0.75813010  0.56828617  0.75601389     0.29780
F3511       F  0.74013845  0.60653867  0.76674796    -0.19620
H3512       H  0.73011282  0.59703148  0.73068262     0.18140
H3513       H  0.83793474  0.47338666  0.75700372     0.18150
F3514       F  0.84570476  0.47837180  0.72075878    -0.19610
C3515       C  0.73820911  0.49298334  0.65748714    -0.21050
C3516       C  0.77492049  0.51467912  0.66819405    -0.09090
C3517       C  0.81183620  0.53810184  0.65828848     0.29770
C3518       C  0.81175488  0.53972047  0.63827262    -0.21050
C3519       C  0.77546456  0.51735924  0.62749604    -0.09100
C3520       C  0.73824095  0.49439997  0.63744774     0.29780
F3521       F  0.70115768  0.97389180  0.62796711    -0.19620
H3522       H  0.70935649  0.97429390  0.66477052     0.18140
H3523       H  0.84108656  0.55756994  0.63113019     0.18150
F3524       F  0.84929941  0.55739429  0.66782195    -0.19610
C3525       C  0.55416564  0.75181100  0.76339152    -0.21050
C3526       C  0.51064500  0.77032719  0.77203951    -0.09090
C3527       C  0.47556806  0.78960620  0.75985086     0.29770
C3528       C  0.98435394  0.79010294  0.74029566    -0.21050
C3529       C  0.53043201  0.77944955  0.73256190    -0.09100
C3530       C  0.56562907  0.76040103  0.74432716     0.29780
F3531       F  0.61159610  0.75222644  0.73777698    -0.19620
H3532       H  0.58048291  0.73222619  0.77130678     0.18140
H3533       H  0.95517819  0.80081236  0.73137287     0.18150
F3534       F  0.93299694  0.80984746  0.76649109    -0.19610
C3535       C  0.58872197  0.74902024  0.66713295    -0.21050
C3536       C  0.54931910  0.76544596  0.67871833    -0.09090
C3537       C  0.00825475  0.78586494  0.67055282     0.29770
C3538       C  0.00609624  0.78793091  0.65083614    -0.21050
C3539       C  0.04416134  0.76836765  0.63919323    -0.09100
C3540       C  0.58617114  0.75027634  0.64740394     0.29780
F3541       F  0.62393337  0.73240641  0.63635980    -0.19620
H3542       H  0.62044306  0.73314238  0.67335530     0.18140
H3543       H  0.97327064  0.80150304  0.64464294     0.18150
F3544       F  0.96877974  0.79984399  0.68149445    -0.19610
C3545       C  0.58729021  0.91715345  0.69836796    -0.21050
C3546       C  0.54716426  0.94874299  0.70262923    -0.09090
C3547       C  0.00450495  0.92765445  0.70928779     0.29770
C3548       C  0.00242311  0.87727475  0.71181748    -0.21050
C3549       C  0.54289628  0.84543798  0.70812509    -0.09100
C3550       C  0.58551735  0.86674901  0.70127209     0.29780
F3551       F  0.62582476  0.83884215  0.69747862    -0.19620
H3552       H  0.62036533  0.93169933  0.69265280     0.18140
H3553       H  0.96796874  0.86365299  0.71611851     0.18150
F3554       F  0.96394415  0.95552450  0.71262168    -0.19610
C3555       C  0.00725497  0.67192378  0.69600193    -0.21050
C3556       C  0.54680895  0.69940747  0.70221760    -0.09090
C3557       C  0.58848754  0.67282818  0.70717874     0.29770
C3558       C  0.58810187  0.62192643  0.70849080    -0.21050
C3559       C  0.54777884  0.59468866  0.70320814    -0.09100
C3560       C  0.00798019  0.62060021  0.69608922     0.29780
F3561       F  0.96826336  0.59654692  0.69049663    -0.19620
H3562       H  0.97563728  0.69039954  0.69079954     0.18140
H3563       H  0.61980999  0.60348530  0.71363556     0.18150
F3564       F  0.63071200  0.69554847  0.70970089    -0.19610
C3565       C  0.99041617  0.56249913  0.75888680    -0.21050
C3566       C  0.51515110  0.52781157  0.76906959    -0.09090
C3567       C  0.54871535  0.49616493  0.75933639     0.29770
C3568       C  0.56038301  0.50259564  0.74017781    -0.21050
C3569       C  0.53453711  0.53667275  0.72989952    -0.09100
C3570       C  0.99849692  0.56578187  0.73948989     0.29780
F3571       F  0.96982657  0.59690531  0.73027317    -0.19620
H3572       H  0.96407882  0.58724111  0.76577969     0.18140
H3573       H  0.58893997  0.48021738  0.73335919     0.18150
F3574       F  0.56891890  0.45819786  0.76805169    -0.19610
C3575       C  0.59008963  0.02476328  0.64679751    -0.21050
C3576       C  0.05160638  0.00525185  0.63661915    -0.09090
C3577       C  0.01090144  0.98858505  0.64643042     0.29770
C3578       C  0.00948591  0.98999209  0.66621802    -0.21050
C3579       C  0.04869880  0.00748872  0.67639503    -0.09100
C3580       C  0.58893782  0.02535660  0.66669657     0.29780
F3581       F  0.62764343  0.04115745  0.67640999    -0.19620
H3582       H  0.62161760  0.03787124  0.63933475     0.18140
H3583       H  0.97816597  0.97635087  0.67365297     0.18150
F3584       F  0.97245192  0.97123717  0.63690264    -0.19610
loop_ 
_geom_bond_atom_site_label_1 
_geom_bond_atom_site_label_2 
_geom_bond_distance 
_geom_bond_site_symmetry_2 
_ccdc_geom_bond_type 
C1          C891   1.461       .  S
C1         C2650   1.535       .  S
C1         C2690   1.384       .  D
C2          C871   1.536       .  S
C2          C881   1.480       .  S
C2         C2689   1.384       .  D
C3          C848   1.463       .  S
C3          C868   1.537       .  S
C3            C4   1.383       .  D
C4          C841   1.479       .  S
C4          C861   1.549       .  S
C5          C828   1.505       .  S
C5         C1694   1.542   1_545  S
C5            C6   1.403       .  D
C6          C811   1.549       .  S
C6          C818   1.506       .  S
C7          C788   1.503       .  S
C7          C808   1.541       .  S
C7            C8   1.405       .  D
C8          C778   1.524       .  S
C8          C801   1.547       .  S
C9          C761   1.538       .  S
C9          C771   1.466       .  S
C9           C10   1.381       .  D
C10         C878   1.475       .  S
C10        C2540   1.538   1_455  S
C11         C838   1.510       .  S
C11        C2510   1.541   1_455  S
C11          C12   1.401       .  D
C12         C731   1.546       .  S
C12         C738   1.484       .  S
C13         C751   1.542       .  S
C13         C821   1.506       .  S
C13          C14   1.392       .  D
C14         C708   1.476       .  S
C14         C758   1.539       .  S
C15         C728   1.545       .  S
C15         C781   1.523       .  S
C15          C16   1.403       .  D
C16         C701   1.501       .  S
C16         C721   1.535       .  S
C17         C658   1.538       .  S
C17         C688   1.484       .  S
C17          C18   1.393       .  D
C18        C1564   1.541       .  S
C18        C1574   1.495       .  S
C19         C648   1.499       .  S
C19         C671   1.537       .  S
C19          C20   1.394       .  D
C20         C641   1.494       .  S
C20         C661   1.538       .  S
C21         C621   1.492   1_565  S
C21        C1497   1.540       .  S
C21          C22   1.390   1_565  D
C22         C611   1.542       .  S
C22         C631   1.479       .  S
C23         C581   1.491       .  S
C23         C608   1.546       .  S
C23          C24   1.394       .  D
C24         C588   1.478       .  S
C24         C598   1.534       .  S
O25         Cu33   2.023       .  S
O25          C35   1.278       .  A
O26         Cu33   2.008       .  S
O26          C36   1.278       .  A
O27        Cu929   1.979       .  S
O27          C37   1.277       .  A
O28         Cu33   1.991       .  S
O28          C38   1.269       .  A
O29         Cu34   1.982   1_655  S
O29        C1830   1.277       .  A
O30        Cu930   1.979   1_545  S
O30        C1829   1.266       .  A
O31         Cu34   1.989       .  S
O31        C1828   1.274       .  A
O32         Cu34   1.970       .  S
O32        C1827   1.275       .  A
Cu33        O923   1.979       .  S
Cu33      Cu1826   2.375       .  S
Cu34        O926   1.980       .  S
Cu34      Cu1825   2.375       .  S
C35        O1824   1.275       .  A
C35        C2483   1.473       .  S
C36        O1823   1.274       .  A
C36         C568   1.462       .  S
C37        O1822   1.266       .  A
C37         C558   1.454       .  S
C38        O1821   1.277       .  A
C38         C551   1.448       .  S
O39         Cu47   2.005       .  S
O39        C1841   1.278       .  A
O40         Cu47   2.002       .  S
O40          C50   1.276       .  A
O41         Cu47   1.994       .  S
O41        C1843   1.268       .  A
O42         Cu47   1.988       .  S
O42        C1844   1.276       .  A
O43         Cu48   1.979       .  S
O43          C52   1.263       .  A
O44         Cu48   1.981   1_655  S
O44          C51   1.277       .  A
O45         Cu48   2.024       .  S
O45        C1842   1.281       .  A
O46         Cu48   2.037       .  S
O46          C49   1.280       .  A
Cu47      Cu1840   2.362       .  S
Cu48      Cu1839   2.362   1_455  S
C49        O1831   1.278   1_455  A
C49         C651   1.490       .  S
C50        O1837   1.281       .  A
C50         C538   1.481       .  S
C51        O1833   1.268       .  A
C51        C2340   1.457       .  S
C52        O1834   1.276       .  A
C52        C2353   1.446       .  S
O53         Cu61   2.013       .  S
O53          C63   1.280       .  A
O54         Cu61   2.010   1_545  S
O54          C64   1.276       .  A
O55         Cu61   1.985       .  S
O55         C961   1.275       .  A
O56         Cu61   1.978   1_545  S
O56          C66   1.269       .  A
O57         Cu62   1.984       .  S
O57          C66   1.278       .  A
O58         Cu62   1.971       .  S
O58         C961   1.264   1_545  A
O59         Cu62   1.989       .  S
O59          C64   1.274       .  A
O60         Cu62   1.978       .  S
O60          C63   1.272   1_545  A
Cu61        Cu62   2.370   1_565  S
C63         C628   1.468       .  S
C64         C528   1.464       .  S
C65         O951   1.275       .  A
C65         O954   1.264       .  A
C65         C511   1.446       .  S
C66         C518   1.450       .  S
O67         Cu75   2.013       .  S
O67          C77   1.278       .  A
O68         Cu75   2.008       .  S
O68          C78   1.277       .  A
O69         Cu75   1.994       .  S
O69          C79   1.268       .  A
O70         Cu75   1.985       .  S
O70          C80   1.279       .  A
O71         Cu76   1.979       .  S
O71          C80   1.266       .  A
O72         Cu76   1.980       .  S
O72          C79   1.279       .  A
O73         Cu76   1.994       .  S
O73          C78   1.277       .  A
O74         Cu76   1.994       .  S
O74          C77   1.277       .  A
Cu75        Cu76   2.371       .  S
C77         C591   1.470       .  S
C78         C498   1.479       .  S
C79         C508   1.465       .  S
C80         C521   1.452       .  S
O81         Cu89   2.000   1_655  S
O81          C91   1.275   1_655  A
O82         Cu89   2.001       .  S
O82          C92   1.276       .  A
O83       Cu1881   1.978   1_565  S
O83          C93   1.278       .  A
O84         Cu89   1.985       .  S
O84          C94   1.269       .  A
O85         Cu90   1.976   1_545  S
O85          C94   1.273       .  A
O86       Cu1882   1.985       .  S
O86          C93   1.265       .  A
O87         Cu90   2.007   1_545  S
O87          C92   1.276       .  A
O88         Cu90   2.008       .  S
O88          C91   1.278   1_565  A
Cu89       O1875   1.978   1_445  S
Cu89        Cu90   2.371   1_545  S
Cu90       O1878   1.985       .  S
C91         C488   1.472       .  S
C92         C481   1.464       .  S
C93         C458   1.454       .  S
C94         C468   1.449       .  S
O95        Cu103   2.000   1_655  S
O95         C105   1.276   1_655  A
O96        Cu103   2.005       .  S
O96         C106   1.276       .  A
O97       Cu1895   1.982       .  S
O97         C107   1.277       .  A
O98        Cu103   1.971       .  S
O98         C108   1.266       .  A
O99        Cu104   1.974       .  S
O99         C108   1.275       .  A
O100      Cu1896   1.973       .  S
O100        C107   1.262       .  A
O101       Cu104   1.990       .  S
O101        C106   1.275       .  A
O102       Cu104   2.002       .  S
O102        C105   1.276       .  A
Cu103      O1889   1.982   1_455  S
Cu103      Cu104   2.375       .  S
Cu104      O1892   1.973       .  S
C105        C451   1.463       .  S
C106        C438   1.461       .  S
C107        C421   1.453       .  S
C108        C428   1.440       .  S
O109       Cu117   2.019       .  S
O109        C119   1.279       .  A
O110       Cu117   2.022       .  S
O110        C120   1.281       .  A
O111       Cu117   1.975       .  S
O111        C121   1.277       .  A
O112       Cu117   1.976   1_565  S
O112        C122   1.266       .  A
O113       Cu118   1.986   1_565  S
O113        C122   1.277       .  A
O114       Cu118   1.984       .  S
O114        C121   1.265       .  A
O115       Cu118   2.025       .  S
O115        C120   1.278       .  A
O116       Cu118   2.028       .  S
O116        C119   1.280       .  A
Cu117      Cu118   2.370       .  S
C119        C398   1.485       .  S
C120        C408   1.490       .  S
C121        C471   1.458       .  S
C122        C461   1.445       .  S
O123       Cu131   1.999       .  S
O123        C133   1.275       .  A
O124       Cu131   1.998       .  S
O124        C134   1.276       .  A
O125       Cu131   1.974       .  S
O125        C135   1.279       .  A
O126       Cu131   1.970       .  S
O126        C136   1.266       .  A
O127       Cu132   1.986       .  S
O127        C136   1.276       .  A
O128       Cu132   1.986       .  S
O128        C135   1.265       .  A
O129       Cu132   2.013       .  S
O129        C134   1.278       .  A
O130       Cu132   2.013       .  S
O130        C133   1.276       .  A
Cu131      Cu132   2.374       .  S
C133        C381   1.464       .  S
C134        C388   1.466       .  S
C135        C431   1.457       .  S
C136        C418   1.447       .  S
C137        C681   1.494       .  S
C137       C2153   1.543   1_455  S
C137        C138   1.386       .  D
C138        C371   1.539       .  S
C138        C491   1.477       .  S
C139        C638   1.493       .  S
C139       C2133   1.539   1_455  S
C139        C140   1.385       .  D
C140        C348   1.539       .  S
C140        C448   1.479       .  S
C141        C358   1.537       .  S
C141        C618   1.494       .  S
C141        C142   1.388       .  D
C142        C368   1.541       .  S
C142        C411   1.496       .  S
C143        C351   1.543       .  S
C143        C391   1.481       .  S
C143        C144   1.385       .  D
C144        C338   1.539       .  S
C144        C578   1.494       .  S
O145       Cu153   1.992       .  S
O145        C155   1.275   1_655  A
O146       Cu153   2.004   1_455  S
O146        C156   1.278       .  A
O147      Cu1945   1.981       .  S
O147        C157   1.274       .  A
O148       Cu153   1.981   1_465  S
O148        C158   1.264       .  A
O149       Cu154   1.957   1_565  S
O149        C158   1.275       .  A
O150      Cu1946   1.947       .  S
O150        C157   1.263       .  A
O151       Cu154   2.001       .  S
O151        C156   1.276       .  A
O152       Cu154   1.988       .  S
O152        C155   1.276       .  A
Cu153      O1939   1.981       .  S
Cu153      Cu154   2.370   1_655  S
Cu154      O1942   1.947       .  S
C155        C768   1.461       .  S
C156        C478   1.481       .  S
C157        C321   1.439       .  S
C158        C328   1.461       .  S
O159       Cu167   2.024       .  S
O159        C169   1.278   1_655  A
O160       Cu167   2.007   1_455  S
O160        C170   1.278       .  A
O161      Cu1959   1.972       .  S
O161        C171   1.274       .  A
O162       Cu167   1.967   1_455  S
O162        C172   1.262       .  A
O163       Cu168   1.972       .  S
O163        C172   1.277       .  A
O164      Cu1960   1.960       .  S
O164        C171   1.266       .  A
O165       Cu168   1.990       .  S
O165        C170   1.274       .  A
O166       Cu168   1.998       .  S
O166        C169   1.277       .  A
Cu167      O1953   1.972       .  S
Cu167      Cu168   2.373   1_655  S
Cu168      O1956   1.960       .  S
C169        C741   1.476       .  S
C170        C441   1.459       .  S
C171        C301   1.444       .  S
C172        C311   1.461       .  S
O173       Cu181   2.006       .  S
O173        C183   1.278       .  A
O174       Cu181   2.023       .  S
O174        C184   1.278       .  A
O175       Cu181   1.967       .  S
O175        C185   1.262       .  A
O176       Cu181   1.978       .  S
O176        C186   1.273   1_545  A
O177       Cu182   1.967   1_565  S
O177        C186   1.267       .  A
O178       Cu182   1.974       .  S
O178        C185   1.277       .  A
O179       Cu182   2.019       .  S
O179        C184   1.278       .  A
O180       Cu182   1.990       .  S
O180        C183   1.275       .  A
Cu181      Cu182   2.371       .  S
C183        C711   1.465       .  S
C184        C401   1.476       .  S
C185        C318   1.459       .  S
C186        C331   1.444       .  S
O187       Cu195   2.037       .  S
O187        C197   1.282       .  A
O188       Cu195   2.013       .  S
O188        C198   1.279       .  A
O189       Cu195   1.939       .  S
O189        C199   1.261       .  A
O190       Cu195   1.967       .  S
O190        C200   1.274       .  A
O191       Cu196   1.987       .  S
O191        C200   1.264       .  A
O192       Cu196   1.983       .  S
O192        C199   1.275       .  A
O193       Cu196   2.005       .  S
O193        C198   1.276       .  A
O194       Cu196   2.032       .  S
O194        C197   1.279       .  A
Cu195      Cu196   2.366       .  S
C197        C698   1.496       .  S
C198        C378   1.473       .  S
C199        C308   1.439       .  S
C200        C298   1.456       .  S
O201       Cu209   1.978       .  S
O201       C2003   1.273       .  A
O202       Cu209   2.000       .  S
O202       C2004   1.276       .  A
O203      Cu1105   1.980       .  S
O203       C2005   1.274   1_455  A
O204       Cu209   1.971       .  S
O204       C2006   1.262       .  A
O205       Cu210   1.969       .  S
O205        C214   1.276       .  A
O206      Cu1106   1.958   1_545  S
O206        C213   1.262       .  A
O207       Cu210   1.996       .  S
O207        C212   1.276       .  A
O208       Cu210   1.984       .  S
O208        C211   1.276       .  A
Cu209      O1099   1.980       .  S
Cu209     Cu2002   2.367       .  S
Cu210      O1102   1.958       .  S
Cu210     Cu2001   2.367       .  S
C211       O1993   1.273       .  A
C211        C888   1.455       .  S
C212       O1994   1.276       .  A
C212        C571   1.459       .  S
C213       O1995   1.274       .  A
C213        C288   1.436       .  S
C214       O1996   1.262       .  A
C214        C278   1.462       .  S
O215       Cu223   1.984       .  S
O215       C2017   1.276       .  A
O216       Cu223   2.008       .  S
O216       C2018   1.275       .  A
O217       Cu223   1.959       .  S
O217       C2019   1.264       .  A
O218       Cu223   1.974   1_655  S
O218       C2020   1.278       .  A
O219       Cu224   1.980       .  S
O219        C228   1.264       .  A
O220       Cu224   1.972       .  S
O220        C227   1.272       .  A
O221       Cu224   2.018       .  S
O221        C226   1.275       .  A
O222       Cu224   1.978       .  S
O222        C225   1.274       .  A
Cu223     Cu2016   2.368   1_455  S
Cu224     Cu2015   2.368       .  S
C225       O2007   1.276       .  A
C225        C851   1.454       .  S
C226       O2008   1.275       .  A
C226        C541   1.467       .  S
C227       O2009   1.264       .  A
C227        C281   1.437       .  S
C228       O2010   1.278       .  A
C228        C291   1.460       .  S
O229       Cu237   2.071       .  S
O229        C239   1.287   1_565  A
O230       Cu237   2.020       .  S
O230        C240   1.281   1_565  A
O231      Cu1133   1.953       .  S
O231        C241   1.270       .  A
O232       Cu237   1.942   1_545  S
O232        C242   1.258       .  A
O233       Cu238   1.996       .  S
O233        C242   1.281       .  A
O234      Cu1134   1.990       .  S
O234        C241   1.268       .  A
O235       Cu238   1.989       .  S
O235        C240   1.273       .  A
O236       Cu238   2.002       .  S
O236        C239   1.275       .  A
Cu237      O1127   1.953       .  S
Cu237      Cu238   2.369   1_565  S
Cu238      O1130   1.990       .  S
C239        C831   1.501       .  S
C240        C531   1.465       .  S
C241        C258   1.442       .  S
C242        C271   1.459       .  S
O243       Cu251   2.045       .  S
O243        C253   1.281       .  A
O244       Cu251   2.029       .  S
O244        C254   1.281       .  A
O245       Cu251   1.958       .  S
O245        C255   1.264       .  A
O246       Cu251   1.965       .  S
O246        C256   1.274       .  A
O247       Cu252   1.983       .  S
O247        C256   1.265       .  A
O248       Cu252   1.967       .  S
O248        C255   1.273       .  A
O249       Cu252   1.985       .  S
O249        C254   1.270       .  A
O250       Cu252   2.012       .  S
O250        C253   1.277       .  A
Cu251      Cu252   2.349       .  S
C253        C791   1.496       .  S
C254        C501   1.462       .  S
C255        C268   1.435       .  S
C256        C261   1.453       .  S
C257        C258   1.402       .  A
C257        C262   1.388       .  A
C257        H264   1.084       .  S
C258        C259   1.402       .  A
C259        C260   1.392       .  A
C259        F266   1.358       .  S
C260        C261   1.400       .  A
C260        H265   1.083       .  S
C261        C262   1.400       .  A
C262        F263   1.357       .  S
C267        C268   1.404       .  A
C267        C272   1.392       .  A
C267        H274   1.084       .  S
C268        C269   1.401       .  A
C269        C270   1.392       .  A
C269        F276   1.356       .  S
C270        C271   1.401       .  A
C270        H275   1.083       .  S
C271        C272   1.399       .  A
C272        F273   1.357       .  S
C277        C282   1.393       .  A
C277       C2070   1.399       .  A
C277        H284   1.080       .  S
C278        C279   1.404       .  A
C278       C2069   1.399       .  A
C279        C280   1.397       .  A
C279        F286   1.357       .  S
C280        C281   1.401       .  A
C280        H285   1.083       .  S
C281       C2074   1.403       .  A
C282       C2073   1.403       .  A
C282        F283   1.358       .  S
C287        C292   1.393       .  A
C287       C2080   1.401       .  A
C287        H294   1.084       .  S
C288        C289   1.401       .  A
C288       C2079   1.401       .  A
C289        C290   1.390       .  A
C289        F296   1.358       .  S
C290        C291   1.403       .  A
C290        H295   1.081       .  S
C291       C2084   1.402       .  A
C292       C2083   1.402       .  A
C292        F293   1.355       .  S
C297        C298   1.398       .  A
C297        C302   1.390       .  A
C297        H304   1.084       .  S
C298        C299   1.402       .  A
C299        C300   1.392       .  A
C299        F306   1.356       .  S
C300        C301   1.399       .  A
C300        H305   1.084       .  S
C301        C302   1.405       .  A
C302        F303   1.358       .  S
C307        C308   1.402       .  A
C307        C312   1.392       .  A
C307        H314   1.084       .  S
C308        C309   1.402       .  A
C309        C310   1.395       .  A
C309        F316   1.358       .  S
C310        C311   1.402       .  A
C310        H315   1.083       .  S
C311        C312   1.399       .  A
C312        F313   1.356       .  S
C317        C318   1.404       .  A
C317        C322   1.395       .  A
C317       H1220   1.084       .  S
C318        C319   1.398       .  A
C319        C320   1.390       .  A
C319        F326   1.355       .  S
C320        C321   1.403       .  A
C320        H325   1.084       .  S
C321        C322   1.400       .  A
C322       F1219   1.357       .  S
F323       C1218   1.357       .  S
H324       C1213   1.084       .  S
C327        C328   1.401       .  A
C327        C332   1.395       .  A
C327        H334   1.083       .  S
C328        C329   1.403       .  A
C329        C330   1.395       .  A
C329        F336   1.355       .  S
C330        C331   1.401       .  A
C330        H335   1.084       .  S
C331        C332   1.405       .  A
C332        F333   1.357       .  S
C337        C338   1.413       .  A
C337        C342   1.423       .  A
C337        H344   1.083       .  S
C338        C339   1.410       .  A
C339        C340   1.412       .  A
C339        F346   1.352       .  S
C340        C341   1.408       .  A
C340        H345   1.083       .  S
C341       C1931   1.539       .  S
C341        C342   1.419       .  A
C342        F343   1.355       .  S
C347        C348   1.409       .  A
C347        C352   1.409       .  A
C347        H354   1.081       .  S
C348        C349   1.419       .  A
C349        C350   1.432       .  A
C349        F356   1.356       .  S
C350        C351   1.418       .  A
C350        H355   1.083       .  S
C351        C352   1.414       .  A
C352        F353   1.353       .  S
C357        C362   1.426       .  A
C357       C1254   1.415       .  A
C357        H364   1.083       .  S
C358        C359   1.411       .  A
C358       C1253   1.415   1_545  A
C359        C360   1.408       .  A
C359        F366   1.355       .  S
C360        C361   1.410       .  A
C360        H365   1.083       .  S
C361       C1929   1.543       .  S
C361       C1258   1.420   1_545  A
C362       C1257   1.420       .  A
C362        F363   1.355       .  S
C367        C368   1.409       .  A
C367        C372   1.410       .  A
C367        H374   1.083       .  S
C368       C1265   1.419   1_545  A
C369        C370   1.429       .  A
C369       C1264   1.419       .  A
C369        F376   1.356       .  S
C370       C1267   1.416       .  A
C370        H375   1.083       .  S
C371        C372   1.414       .  A
C371       C1266   1.416   1_545  A
C372        F373   1.357       .  S
C377        C378   1.401       .  A
C377        C382   1.394   1_556  A
C377        H384   1.084       .  S
C378        C379   1.408       .  A
C379        C380   1.402   1_556  A
C379        F386   1.352       .  S
C380        C381   1.399       .  A
C380        H385   1.083       .  S
C381        C382   1.402       .  A
C382        F383   1.354       .  S
C387        C388   1.402       .  A
C387        C392   1.400       .  A
C387        H394   1.083       .  S
C388        C389   1.405       .  A
C389        C390   1.396       .  A
C389        F396   1.358       .  S
C390        C391   1.401       .  A
C390        H395   1.084       .  S
C391        C392   1.407       .  A
C392        F393   1.356       .  S
C397        C398   1.405       .  A
C397        C402   1.402   1_554  A
C397        H404   1.083   1_545  S
C398        C399   1.408       .  A
C399        C400   1.405   1_554  A
C399        F406   1.353       .  S
C400        C401   1.402       .  A
C400        H405   1.084       .  S
C401        C402   1.401       .  A
C402        F403   1.354   1_545  S
C407        C408   1.401   1_565  A
C407        C412   1.394       .  A
C407        H414   1.075       .  S
C408        C409   1.411       .  A
C409        C410   1.409       .  A
C409        F416   1.357       .  S
C410        C411   1.408       .  A
C410        H415   1.082       .  S
C411        C412   1.405   1_545  A
C412       F1309   1.358       .  S
F413       C1308   1.358       .  S
C417        C418   1.402       .  A
C417        C422   1.386       .  A
C417        H424   1.083       .  S
C418        C419   1.403       .  A
C419        C420   1.393       .  A
C419        F426   1.356       .  S
C420        C421   1.400       .  A
C420        H425   1.084       .  S
C421        C422   1.399       .  A
C422        F423   1.357       .  S
C427        C428   1.401       .  A
C427        C432   1.390       .  A
C427        H434   1.084       .  S
C428        C429   1.403       .  A
C429        C430   1.388       .  A
C429        F436   1.357       .  S
C430        C431   1.398       .  A
C430        H435   1.079       .  S
C431        C432   1.404       .  A
C432        F433   1.357       .  S
C437        C438   1.402       .  A
C437        C442   1.392   1_554  A
C437        H444   1.084       .  S
C438        C439   1.404       .  A
C439        C440   1.399   1_554  A
C439        F446   1.357       .  S
C440        C441   1.404       .  A
C440        H445   1.084       .  S
C441        C442   1.400       .  A
C442        F443   1.358       .  S
C447        C448   1.404       .  A
C447        C452   1.399       .  A
C447       H2246   1.082       .  S
C448        C449   1.402       .  A
C449        C450   1.394       .  A
C449        F456   1.358       .  S
C450        C451   1.402       .  A
C450        H455   1.084       .  S
C451        C452   1.403       .  A
C452       F2245   1.356       .  S
F453       C2244   1.356       .  S
H454       C2239   1.082       .  S
C457        C458   1.401       .  A
C457        C462   1.393       .  A
C457        H464   1.082       .  S
C458        C459   1.400       .  A
C459        C460   1.388       .  A
C459       F1362   1.358       .  S
C460        C461   1.402       .  A
C460       H1361   1.084       .  S
C461        C462   1.400       .  A
C462        F463   1.358       .  S
H465       C1356   1.084       .  S
F466       C1355   1.358       .  S
C467        C468   1.403       .  A
C467        C472   1.392       .  A
C467       H1370   1.084       .  S
C468        C469   1.402       .  A
C469        C470   1.395       .  A
C469        F476   1.357       .  S
C470        C471   1.401       .  A
C470        H475   1.084       .  S
C471        C472   1.401       .  A
C472       F1369   1.358       .  S
F473       C1368   1.358       .  S
H474       C1363   1.084       .  S
C477        C478   1.406   1_565  A
C477        C482   1.393   1_556  A
C477       H2276   1.083   1_455  S
C478        C479   1.413       .  A
C479        C480   1.400   1_556  A
C479        F486   1.357       .  S
C480        C481   1.400       .  A
C480        H485   1.084       .  S
C481        C482   1.401   1_545  A
C482       F2275   1.358   1_455  S
F483       C2274   1.358       .  S
H484       C2269   1.083       .  S
C487        C488   1.404       .  A
C487        C492   1.399       .  A
C487       H2286   1.082   1_455  S
C488        C489   1.402   1_545  A
C489        C490   1.391       .  A
C489        F496   1.350       .  S
C490        C491   1.398   1_565  A
C490        H495   1.083       .  S
C491        C492   1.406       .  A
C492       F2285   1.357       .  S
F493       C2284   1.357       .  S
H494       C2279   1.082       .  S
C497        C498   1.406       .  A
C497        C502   1.394       .  A
C497        H504   1.081       .  S
C498        C499   1.412       .  A
C499        C500   1.400       .  A
C499        F506   1.357       .  S
C500        C501   1.401       .  A
C500        H505   1.084       .  S
C501        C502   1.399       .  A
C502        F503   1.357       .  S
C507        C508   1.399       .  A
C507        C512   1.386       .  A
C507        H514   1.075       .  S
C508        C509   1.406       .  A
C509        C510   1.397       .  A
C509        F516   1.358       .  S
C510        C511   1.405       .  A
C510        H515   1.084       .  S
C511        C512   1.399       .  A
C512        F513   1.355       .  S
C517        C518   1.394       .  A
C517        C522   1.383       .  A
C517        H524   1.072       .  S
C518        C519   1.404       .  A
C519        C520   1.393       .  A
C519        F526   1.357       .  S
C520        C521   1.403       .  A
C520        H525   1.083       .  S
C521        C522   1.399       .  A
C522        F523   1.350       .  S
C527        C528   1.404       .  A
C527        C532   1.393       .  A
C527        H534   1.084       .  S
C528        C529   1.402       .  A
C529        C530   1.401       .  A
C529        F536   1.356       .  S
C530        C531   1.406       .  A
C530        H535   1.083       .  S
C531        C532   1.400       .  A
C532        F533   1.358       .  S
C537        C538   1.410       .  A
C537        C542   1.404       .  A
C537        H544   1.083       .  S
C538       C2331   1.406       .  A
C539        C540   1.396       .  A
C539       C2330   1.406       .  A
C539        F546   1.358       .  S
C540       C2333   1.401       .  A
C540        H545   1.084       .  S
C541        C542   1.402       .  A
C541       C2332   1.401       .  A
C542        F543   1.358       .  S
C547        C548   1.403       .  A
C547        C552   1.392       .  A
C547        H554   1.083       .  S
C548       C1843   1.457       .  S
C548       C2341   1.401       .  A
C549        C550   1.392       .  A
C549       C2340   1.401       .  A
C549        F556   1.355       .  S
C550       C2343   1.400       .  A
C550        H555   1.084       .  S
C551        C552   1.402       .  A
C551       C2342   1.400       .  A
C552        F553   1.358       .  S
C557        C558   1.400       .  A
C557        C562   1.391       .  A
C557        H564   1.084       .  S
C558       C2351   1.402       .  A
C559        C560   1.391       .  A
C559       C2350   1.402       .  A
C559        F566   1.357       .  S
C560       C2353   1.399       .  A
C560        H565   1.084       .  S
C561       C1844   1.446       .  S
C561        C562   1.403       .  A
C561       C2352   1.399       .  A
C562        F563   1.358       .  S
C567        C568   1.400       .  A
C567        C572   1.394       .  A
C567        H574   1.082       .  S
C568       C2361   1.405       .  A
C569        C570   1.396       .  A
C569       C2360   1.405       .  A
C569       F1472   1.357       .  S
C570       C2363   1.400       .  A
C570        H575   1.083       .  S
C571        C572   1.403       .  A
C571       C2362   1.400       .  A
C572        F573   1.357       .  S
F576       C1465   1.357       .  S
C577        C578   1.407       .  A
C577        C582   1.393       .  A
C577        H584   1.083       .  S
C578        C579   1.409       .  A
C579        C580   1.397       .  A
C579        F586   1.355       .  S
C580        C581   1.405       .  A
C580        H585   1.083       .  S
C581        C582   1.405       .  A
C582        F583   1.355       .  S
C587        C588   1.398       .  A
C587        C592   1.394       .  A
C587        H594   1.083       .  S
C588        C589   1.408       .  A
C589        C590   1.402       .  A
C589        F596   1.356       .  S
C590        C591   1.401       .  A
C590        H595   1.082       .  S
C591        C592   1.408       .  A
C592        F593   1.358       .  S
C597        C598   1.414       .  A
C597        C602   1.413       .  A
C597        H604   1.082       .  S
C598        C599   1.410       .  A
C599        C600   1.421       .  A
C599        F606   1.354       .  S
C600        C601   1.415       .  A
C600        H605   1.083       .  S
C601        C917   1.540       .  S
C601        C602   1.413       .  A
C602        F603   1.356       .  S
C607        C608   1.421       .  A
C607        C612   1.423       .  A
C607        H614   1.083       .  S
C608        C609   1.413       .  A
C609        C610   1.420       .  A
C609        F616   1.353       .  S
C610        C611   1.416       .  A
C610        H615   1.080       .  S
C611        C612   1.413       .  A
C612        F613   1.357       .  S
C617        C618   1.408       .  A
C617        C622   1.406       .  A
C617        H624   1.083       .  S
C618       C1515   1.406   1_545  A
C619       C1514   1.406       .  A
C619       C1516   1.388       .  A
C619        F626   1.357       .  S
C620        C621   1.403   1_565  A
C620       C1515   1.388       .  A
C620       H1521   1.083       .  S
C621        C622   1.411       .  A
C622        F623   1.356       .  S
H625       C1516   1.083       .  S
C627        C628   1.405       .  A
C627        C632   1.400   1_565  A
C627        H634   1.082       .  S
C628        C629   1.408       .  A
C629        C630   1.394   1_565  A
C629        F636   1.358       .  S
C630        C631   1.399       .  A
C630        H635   1.083       .  S
C631        C632   1.401       .  A
C632        F633   1.354       .  S
C637        C638   1.403   1_655  A
C637        C642   1.385       .  A
C637       H2436   1.082       .  S
C638        C639   1.413       .  A
C639        C640   1.407       .  A
C639        F646   1.356       .  S
C640        C641   1.408       .  A
C640        H645   1.083       .  S
C641        C642   1.406   1_455  A
C642       F2435   1.358       .  S
F643       C2434   1.358       .  S
H644       C2429   1.082       .  S
C647        C648   1.407       .  A
C647        C652   1.409       .  A
C647        H654   1.081       .  S
C648        C649   1.409   1_455  A
C649        C650   1.394       .  A
C649        F656   1.357       .  S
C650        C651   1.404   1_655  A
C650       H2447   1.083       .  S
C651        C652   1.412       .  A
C652        F653   1.357       .  S
H655       C2442   1.083       .  S
C657        C658   1.406       .  A
C657        C662   1.416       .  A
C657        H664   1.083       .  S
C658       C2451   1.422       .  A
C659        C660   1.415       .  A
C659       C2450   1.422       .  A
C659        F666   1.357       .  S
C660       C2453   1.408       .  A
C660        H665   1.082       .  S
C661        C662   1.423       .  A
C661       C2452   1.408       .  A
C662        F663   1.356       .  S
C667        C668   1.417   1_655  A
C667        C672   1.417       .  A
C667        H674   1.083       .  S
C668        C914   1.540       .  S
C668        C669   1.412       .  A
C669        C670   1.419       .  A
C669       F2468   1.356       .  S
C670        C671   1.416       .  A
C670       H2467   1.083       .  S
C671        C672   1.412   1_455  A
C672        F673   1.357       .  S
H675       C2462   1.083       .  S
F676       C2461   1.356       .  S
C677        C678   1.408       .  A
C677        C682   1.394       .  A
C677        H684   1.084       .  S
C678        C914   1.495       .  S
C678       C3367   1.407   1_545  A
C679       C3366   1.407       .  A
C679       C1576   1.397       .  A
C679        F686   1.356       .  S
C680       C1575   1.397       .  A
C680       C2473   1.408   1_565  A
C680       H1581   1.084       .  S
C681        C682   1.407       .  A
C681       C2472   1.408   1_445  A
C682        F683   1.356       .  S
H685       C1576   1.084       .  S
C687        C692   1.400       .  A
C687       C2480   1.405       .  A
C687        H694   1.083       .  S
C688        C689   1.406       .  A
C688       C2479   1.405       .  A
C689        C690   1.384       .  A
C689        F696   1.357       .  S
C690        C691   1.401       .  A
C690        H695   1.083       .  S
C691       C1827   1.473       .  S
C691       C2484   1.407       .  A
C692       C2483   1.407       .  A
C692        F693   1.352       .  S
C697        C698   1.410       .  A
C697        C702   1.410       .  A
C697        H704   1.083       .  S
C698        C699   1.409       .  A
C699        C700   1.402       .  A
C699        F706   1.356       .  S
C700        C701   1.406       .  A
C700        H705   1.084       .  S
C701        C702   1.408       .  A
C702        F703   1.357       .  S
C707        C708   1.401       .  A
C707        C712   1.395       .  A
C707        H714   1.083   1_545  S
C708        C709   1.405       .  A
C709        C710   1.395       .  A
C709        F716   1.356       .  S
C710        C711   1.401       .  A
C710        H715   1.083       .  S
C711        C712   1.407       .  A
C712       F1609   1.358   1_545  S
F713       C1608   1.358       .  S
C717        C718   1.420       .  A
C717        C722   1.422       .  A
C717        H724   1.083       .  S
C718       C1803   1.541       .  S
C718        C719   1.412       .  A
C719        C720   1.416       .  A
C719        F726   1.356       .  S
C720        C721   1.417       .  A
C720        H725   1.083       .  S
C721        C722   1.411       .  A
C722        F723   1.357       .  S
C727        C728   1.410       .  A
C727        C732   1.420       .  A
C727        H734   1.082       .  S
C728        C729   1.421       .  A
C729        C730   1.423       .  A
C729        F736   1.357       .  S
C730        C731   1.413       .  A
C730        H735   1.083       .  S
C731        C732   1.420       .  A
C732        F733   1.357       .  S
C737        C738   1.401       .  A
C737        C742   1.393       .  A
C737       H2536   1.084       .  S
C738        C739   1.407       .  A
C739        C740   1.404       .  A
C739        F746   1.357   1_455  S
C740        C741   1.406       .  A
C740        H745   1.083   1_455  S
C741        C742   1.405       .  A
C742       F2535   1.356       .  S
F743       C2534   1.356       .  S
H744       C2529   1.084       .  S
C747        C748   1.411   1_565  A
C747        C752   1.417       .  A
C747       H1650   1.083       .  S
C748       C1802   1.538       .  S
C748        C749   1.417       .  A
C749        C750   1.422       .  A
C749        F756   1.357       .  S
C750        C751   1.412       .  A
C750        H755   1.082       .  S
C751        C752   1.415   1_545  A
C752       F1649   1.357       .  S
F753       C1648   1.357       .  S
H754       C1643   1.083       .  S
C757        C758   1.419       .  A
C757        C762   1.419       .  A
C757        H764   1.079       .  S
C758        C759   1.414   1_545  A
C759        C760   1.420       .  A
C759       F1662   1.357       .  S
C760        C761   1.414   1_565  A
C760       H1661   1.083       .  S
C761        C762   1.410       .  A
C762        F763   1.357       .  S
H765       C1656   1.083       .  S
F766       C1655   1.357       .  S
C767        C768   1.404   1_565  A
C767        C772   1.394       .  A
C767       H2566   1.084   1_455  S
C768        C769   1.403       .  A
C769        C770   1.389       .  A
C769        F776   1.357       .  S
C770        C771   1.400       .  A
C770        H775   1.082       .  S
C771        C772   1.402   1_545  A
C772       F2565   1.357       .  S
F773       C2564   1.357       .  S
H774       C2559   1.084       .  S
C777        C778   1.413       .  A
C777        C782   1.411       .  A
C777        H784   1.083       .  S
C778        C779   1.411       .  A
C779        C780   1.411       .  A
C779        F786   1.353       .  S
C780        C781   1.413       .  A
C780        H785   1.083       .  S
C781        C782   1.411       .  A
C782        F783   1.356       .  S
C787        C788   1.408       .  A
C787        C792   1.409       .  A
C787        H794   1.083       .  S
C788        C789   1.407       .  A
C789        C790   1.398       .  A
C789        F796   1.358       .  S
C790        C791   1.406       .  A
C790        H795   1.082       .  S
C791        C792   1.412       .  A
C792        F793   1.356       .  S
C797        C798   1.415       .  A
C797        C802   1.418       .  A
C797        H804   1.083       .  S
C798        C901   1.542       .  S
C798        C799   1.413       .  A
C799        C800   1.423       .  A
C799        F806   1.357       .  S
C800        C801   1.418       .  A
C800        H805   1.083       .  S
C801        C802   1.415       .  A
C802        F803   1.356       .  S
C807        C808   1.419       .  A
C807        C812   1.422       .  A
C807        H814   1.083       .  S
C808        C809   1.410       .  A
C809        C810   1.420       .  A
C809        F816   1.357       .  S
C810        C811   1.422       .  A
C810        H815   1.083       .  S
C811        C812   1.413       .  A
C812        F813   1.355       .  S
C817        C818   1.406       .  A
C817        C822   1.396       .  A
C817        H824   1.084       .  S
C818        C819   1.409       .  A
C819        C820   1.402       .  A
C819        F826   1.355   1_545  S
C820        C821   1.411       .  A
C820        H825   1.077   1_545  S
C821        C822   1.407       .  A
C822        F823   1.351       .  S
C827        C828   1.410   1_565  A
C827        C832   1.407       .  A
C827       H1730   1.083       .  S
C828        C829   1.407       .  A
C829        C830   1.406       .  A
C829        F836   1.357       .  S
C830        C831   1.412       .  A
C830        H835   1.083       .  S
C831        C832   1.408   1_545  A
C832       F1729   1.355       .  S
F833       C1728   1.355       .  S
H834       C1723   1.083       .  S
C837        C838   1.410       .  A
C837        C842   1.397       .  A
C837        H844   1.078       .  S
C838        C839   1.420   1_455  A
C839       C2632   1.386       .  A
C839       F2638   1.356       .  S
C840       C2631   1.386       .  A
C840       C2633   1.393       .  A
C840        H845   1.080       .  S
C841        C842   1.402       .  A
C841       C2632   1.393   1_455  A
C842        F843   1.352       .  S
F846       C2631   1.356       .  S
C847        C848   1.398       .  A
C847        C852   1.389       .  A
C847        H854   1.084       .  S
C848       C2641   1.405       .  A
C849        C850   1.389       .  A
C849       C2640   1.405       .  A
C849        F856   1.358       .  S
C850        C851   1.400       .  A
C850        H855   1.084       .  S
C851       C2644   1.403       .  A
C852       C2643   1.403       .  A
C852        F853   1.356       .  S
C857        C858   1.416       .  A
C857        C862   1.421       .  A
C857        H864   1.083       .  S
C858       C1793   1.535       .  S
C858       C2651   1.407       .  A
C859        C860   1.416       .  A
C859       C2650   1.407       .  A
C859        F866   1.357       .  S
C860       C2653   1.421       .  A
C860        H865   1.076       .  S
C861        C862   1.413       .  A
C861       C2652   1.421       .  A
C862        F863   1.357       .  S
C867        C872   1.421       .  A
C867       C2660   1.416       .  A
C867        H874   1.083       .  S
C868        C869   1.414       .  A
C868       C2659   1.416       .  A
C869        C870   1.417       .  A
C869        F876   1.353       .  S
C870        C871   1.411       .  A
C870        H875   1.083       .  S
C871       C2664   1.415       .  A
C872       C2663   1.415       .  A
C872        F873   1.357       .  S
C877        C882   1.379       .  A
C877       C2670   1.398       .  A
C877        H884   1.079       .  S
C878        C879   1.405   1_545  A
C878       C2669   1.398   1_455  A
C879        C880   1.393   1_565  A
C879        F886   1.355       .  S
C880        C881   1.405       .  A
C880        H885   1.082   1_545  S
C881       C2674   1.407   1_455  A
C882       C2673   1.407       .  A
C882        F883   1.354       .  S
C887        C892   1.394       .  A
C887       C2680   1.404       .  A
C887        H894   1.083       .  S
C888        C889   1.402       .  A
C888       C2679   1.404       .  A
C889        C890   1.386       .  A
C889        F896   1.359       .  S
C890        C891   1.400       .  A
C890        H895   1.083       .  S
C891       C2684   1.401       .  A
C892       C2683   1.401       .  A
C892        F893   1.356       .  S
C897       C3546   1.535   1_545  S
C897       C1787   1.461       .  S
C897       C1794   1.384       .  D
C898       C1767   1.536       .  S
C898       C1777   1.480       .  S
C898       C1793   1.384       .  D
C899       C1744   1.463       .  S
C899       C1764   1.537       .  S
C899        C900   1.383       .  D
C900       C1737   1.479       .  S
C900       C1757   1.549       .  S
C901       C1724   1.505       .  S
C901        C902   1.403       .  D
C902       C1707   1.549       .  S
C902       C1714   1.505       .  S
C903       C1684   1.503       .  S
C903       C1704   1.541       .  S
C903        C904   1.405       .  D
C904       C1674   1.525       .  S
C904       C1697   1.547       .  S
C905       C1657   1.538       .  S
C905       C1667   1.466       .  S
C905        C906   1.381       .  D
C906       C3436   1.537   1_455  S
C906       C1774   1.475       .  S
C907       C3406   1.541   1_455  S
C907       C1734   1.510       .  S
C907        C908   1.401       .  D
C908       C1627   1.546       .  S
C908       C1634   1.484       .  S
C909       C1647   1.542       .  S
C909       C1717   1.505       .  S
C909        C910   1.392       .  D
C910       C1604   1.476       .  S
C910       C1654   1.539       .  S
C911       C1624   1.545       .  S
C911       C1677   1.523       .  S
C911        C912   1.403       .  D
C912       C1597   1.501       .  S
C912       C1617   1.535       .  S
C913       C1554   1.538   1_545  S
C913       C1584   1.484       .  S
C913        C914   1.393       .  D
C915       C1544   1.499       .  S
C915       C1567   1.537       .  S
C915        C916   1.394       .  D
C916       C1537   1.494       .  S
C916       C1557   1.538       .  S
C917       C1517   1.492       .  S
C917        C918   1.390       .  D
C918       C1507   1.542       .  S
C918       C1527   1.479       .  S
C919       C1477   1.490       .  S
C919       C1504   1.546       .  S
C919        C920   1.394       .  D
C920       C1484   1.478       .  S
C920       C1494   1.534       .  S
O921       Cu929   2.024       .  S
O921        C931   1.278       .  A
O922       Cu929   2.009       .  S
O922        C932   1.278       .  A
O923        C933   1.277       .  A
O924       Cu929   1.991       .  S
O924        C934   1.269   1_545  A
O925       Cu930   1.982   1_655  S
O925       C2726   1.277       .  A
O926       C2725   1.266       .  A
O927       Cu930   1.989       .  S
O927       C2724   1.274   1_565  A
O928       Cu930   1.970       .  S
O928       C2723   1.275   1_565  A
Cu929     Cu2722   2.375   1_545  S
Cu930     Cu2721   2.375   1_565  S
C931       O2720   1.275   1_545  A
C931       C3379   1.474       .  S
C932       O2719   1.274   1_545  A
C932       C1464   1.463       .  S
C933       O2718   1.266       .  A
C933       C1454   1.453       .  S
C934       O2717   1.277       .  A
C934       C1447   1.448       .  S
O935       Cu943   2.004       .  S
O935       C2737   1.278       .  A
O936       Cu943   2.002       .  S
O936        C946   1.276       .  A
O937       Cu943   1.994       .  S
O937       C2739   1.268       .  A
O938       Cu943   1.988       .  S
O938       C2740   1.276       .  A
O939       Cu944   1.979       .  S
O939        C948   1.263       .  A
O940       Cu944   1.981   1_655  S
O940        C947   1.277       .  A
O941       Cu944   2.025       .  S
O941       C2738   1.281       .  A
O942       Cu944   2.038       .  S
O942        C945   1.280       .  A
Cu943     Cu2736   2.362       .  S
Cu944     Cu2735   2.362   1_455  S
C945       O2727   1.278   1_455  A
C945       C1547   1.490       .  S
C946       O2733   1.281       .  A
C946       C1434   1.481       .  S
C947       O2729   1.268       .  A
C947       C3236   1.457       .  S
C948       O2730   1.276       .  A
C948       C3249   1.446       .  S
O949       Cu957   2.013       .  S
O949        C959   1.280       .  A
O950       Cu957   2.010       .  S
O950        C960   1.276       .  A
O951       Cu957   1.985       .  S
O952       Cu957   1.977       .  S
O952        C962   1.269       .  A
O953       Cu958   1.984       .  S
O953        C962   1.278       .  A
O954       Cu958   1.972       .  S
O955       Cu958   1.989       .  S
O955        C960   1.274       .  A
O956       Cu958   1.978       .  S
O956        C959   1.272       .  A
Cu957      Cu958   2.370       .  S
C959       C1524   1.467       .  S
C960       C1424   1.464       .  S
C961       C1407   1.446       .  S
C962       C1414   1.449       .  S
O963       Cu971   2.013       .  S
O963        C973   1.278       .  A
O964       Cu971   2.008       .  S
O964        C974   1.277       .  A
O965       Cu971   1.994       .  S
O965        C975   1.268       .  A
O966       Cu971   1.985       .  S
O966        C976   1.279       .  A
O967       Cu972   1.979       .  S
O967        C976   1.266       .  A
O968       Cu972   1.980       .  S
O968        C975   1.279       .  A
O969       Cu972   1.994       .  S
O969        C974   1.277       .  A
O970       Cu972   1.993       .  S
O970        C973   1.277       .  A
Cu971      Cu972   2.372       .  S
C973       C1487   1.469       .  S
C974       C1394   1.479       .  S
C975       C1404   1.465       .  S
C976       C1417   1.452       .  S
O977       Cu985   2.000   1_655  S
O977        C987   1.275   1_655  A
O978       Cu985   2.001       .  S
O978        C988   1.276       .  A
O979      Cu2777   1.978       .  S
O979        C989   1.278       .  A
O980       Cu985   1.985       .  S
O980        C990   1.269       .  A
O981       Cu986   1.976       .  S
O981        C990   1.273       .  A
O982      Cu2778   1.985       .  S
O982        C989   1.265       .  A
O983       Cu986   2.007       .  S
O983        C988   1.276       .  A
O984       Cu986   2.008       .  S
O984        C987   1.278       .  A
Cu985      O2771   1.978   1_455  S
Cu985      Cu986   2.371       .  S
Cu986      O2774   1.985       .  S
C987       C1384   1.472       .  S
C988       C1377   1.464       .  S
C989       C1354   1.454       .  S
C990       C1364   1.449       .  S
O991       Cu999   2.000   1_655  S
O991       C1001   1.276   1_655  A
O992       Cu999   2.005       .  S
O992       C1002   1.276       .  A
O993      Cu2791   1.982       .  S
O993       C1003   1.277       .  A
O994       Cu999   1.971       .  S
O994       C1004   1.266       .  A
O995      Cu1000   1.974       .  S
O995       C1004   1.275       .  A
O996      Cu2792   1.973       .  S
O996       C1003   1.262       .  A
O997      Cu1000   1.990       .  S
O997       C1002   1.275       .  A
O998      Cu1000   2.002       .  S
O998       C1001   1.276       .  A
Cu999      O2785   1.982   1_455  S
Cu999     Cu1000   2.375       .  S
Cu1000     O2788   1.973       .  S
C1001      C1347   1.463       .  S
C1002      C1334   1.461       .  S
C1003      C1317   1.453       .  S
C1004      C1324   1.440       .  S
O1005     Cu1013   2.019       .  S
O1005      C1015   1.279       .  A
O1006     Cu1013   2.022       .  S
O1006      C1016   1.281       .  A
O1007     Cu1013   1.974       .  S
O1007      C1017   1.277       .  A
O1008     Cu1013   1.976       .  S
O1008      C1018   1.266       .  A
O1009     Cu1014   1.986       .  S
O1009      C1018   1.277       .  A
O1010     Cu1014   1.984       .  S
O1010      C1017   1.265       .  A
O1011     Cu1014   2.025       .  S
O1011      C1016   1.278       .  A
O1012     Cu1014   2.028       .  S
O1012      C1015   1.280       .  A
Cu1013    Cu1014   2.370       .  S
C1015      C1294   1.485       .  S
C1016      C1304   1.490       .  S
C1017      C1367   1.458       .  S
C1018      C1357   1.445       .  S
O1019     Cu1027   1.998       .  S
O1019      C1029   1.275       .  A
O1020     Cu1027   1.998       .  S
O1020      C1030   1.276       .  A
O1021     Cu1027   1.974       .  S
O1021      C1031   1.279       .  A
O1022     Cu1027   1.970       .  S
O1022      C1032   1.266       .  A
O1023     Cu1028   1.986       .  S
O1023      C1032   1.276       .  A
O1024     Cu1028   1.986       .  S
O1024      C1031   1.265       .  A
O1025     Cu1028   2.013       .  S
O1025      C1030   1.278       .  A
O1026     Cu1028   2.013       .  S
O1026      C1029   1.276       .  A
Cu1027    Cu1028   2.374       .  S
C1029      C1277   1.464       .  S
C1030      C1284   1.466       .  S
C1031      C1327   1.457       .  S
C1032      C1314   1.447       .  S
C1033      C3049   1.543   1_455  S
C1033      C1577   1.494       .  S
C1033      C1034   1.386       .  D
C1034      C1267   1.539       .  S
C1034      C1387   1.477       .  S
C1035      C3029   1.539   1_455  S
C1035      C1534   1.493       .  S
C1035      C1036   1.385       .  D
C1036      C1244   1.539       .  S
C1036      C1344   1.479       .  S
C1037      C1254   1.537       .  S
C1037      C1514   1.494       .  S
C1037      C1038   1.388       .  D
C1038      C1264   1.541       .  S
C1038      C1307   1.496       .  S
C1039      C1247   1.543       .  S
C1039      C1287   1.481       .  S
C1039      C1040   1.385       .  D
C1040      C1234   1.539       .  S
C1040      C1474   1.494       .  S
O1041     Cu1049   1.992       .  S
O1041      C1051   1.275   1_655  A
O1042     Cu1049   2.004   1_455  S
O1042      C1052   1.278       .  A
O1043     Cu2841   1.981       .  S
O1043      C1053   1.274       .  A
O1044     Cu1049   1.981   1_455  S
O1044      C1054   1.264       .  A
O1045     Cu1050   1.957       .  S
O1045      C1054   1.275       .  A
O1046     Cu2842   1.947       .  S
O1046      C1053   1.263       .  A
O1047     Cu1050   2.002       .  S
O1047      C1052   1.276       .  A
O1048     Cu1050   1.988       .  S
O1048      C1051   1.276       .  A
Cu1049     O2835   1.981       .  S
Cu1049    Cu1050   2.370   1_655  S
Cu1050     O2838   1.947       .  S
C1051      C1664   1.461       .  S
C1052      C1374   1.481       .  S
C1053      C1217   1.439       .  S
C1054      C1224   1.461       .  S
O1055     Cu1063   2.024       .  S
O1055      C1065   1.278   1_655  A
O1056     Cu1063   2.007   1_455  S
O1056      C1066   1.278       .  A
O1057     Cu2855   1.972       .  S
O1057      C1067   1.274       .  A
O1058     Cu1063   1.967   1_455  S
O1058      C1068   1.262       .  A
O1059     Cu1064   1.972       .  S
O1059      C1068   1.277       .  A
O1060     Cu2856   1.960       .  S
O1060      C1067   1.266       .  A
O1061     Cu1064   1.990       .  S
O1061      C1066   1.274       .  A
O1062     Cu1064   1.998       .  S
O1062      C1065   1.277       .  A
Cu1063     O2849   1.972       .  S
Cu1063    Cu1064   2.373   1_655  S
Cu1064     O2852   1.960       .  S
C1065      C1637   1.476       .  S
C1066      C1337   1.459       .  S
C1067      C1197   1.444       .  S
C1068      C1207   1.461       .  S
O1069     Cu1077   2.006       .  S
O1069      C1079   1.278       .  A
O1070     Cu1077   2.023       .  S
O1070      C1080   1.278       .  A
O1071     Cu1077   1.967       .  S
O1071      C1081   1.262       .  A
O1072     Cu1077   1.979       .  S
O1072      C1082   1.273       .  A
O1073     Cu1078   1.967       .  S
O1073      C1082   1.267       .  A
O1074     Cu1078   1.974       .  S
O1074      C1081   1.277       .  A
O1075     Cu1078   2.019       .  S
O1075      C1080   1.278       .  A
O1076     Cu1078   1.989       .  S
O1076      C1079   1.275       .  A
Cu1077    Cu1078   2.371       .  S
C1079      C1607   1.465       .  S
C1080      C1297   1.476       .  S
C1081      C1214   1.459       .  S
C1082      C1227   1.444       .  S
O1083     Cu1091   2.037       .  S
O1083      C1093   1.282       .  A
O1084     Cu1091   2.013       .  S
O1084      C1094   1.279       .  A
O1085     Cu1091   1.939       .  S
O1085      C1095   1.261       .  A
O1086     Cu1091   1.967       .  S
O1086      C1096   1.274       .  A
O1087     Cu1092   1.987       .  S
O1087      C1096   1.264       .  A
O1088     Cu1092   1.983       .  S
O1088      C1095   1.275       .  A
O1089     Cu1092   2.005       .  S
O1089      C1094   1.276       .  A
O1090     Cu1092   2.032       .  S
O1090      C1093   1.279       .  A
Cu1091    Cu1092   2.366       .  S
C1093      C1594   1.496       .  S
C1094      C1274   1.473       .  S
C1095      C1204   1.439       .  S
C1096      C1194   1.456       .  S
O1097     Cu1105   1.978       .  S
O1097      C2899   1.273       .  A
O1098     Cu1105   2.000       .  S
O1098      C2900   1.276   1_545  A
O1099      C2901   1.275   1_455  A
O1100     Cu1105   1.971   1_565  S
O1100      C2902   1.262       .  A
O1101     Cu1106   1.970       .  S
O1101      C1110   1.276       .  A
O1102      C1109   1.262       .  A
O1103     Cu1106   1.996       .  S
O1103      C1108   1.275       .  A
O1104     Cu1106   1.984       .  S
O1104      C1107   1.276   1_565  A
Cu1105    Cu2898   2.366   1_545  S
Cu1106    Cu2897   2.366   1_565  S
C1107      O2889   1.273       .  A
C1107      C1784   1.455       .  S
C1108      O2890   1.276   1_565  A
C1108      C1467   1.459       .  S
C1109      O2891   1.275       .  A
C1109      C1184   1.436       .  S
C1110      O2892   1.262       .  A
C1110      C1174   1.462       .  S
O1111     Cu1119   1.984       .  S
O1111      C2913   1.276       .  A
O1112     Cu1119   2.008       .  S
O1112      C2914   1.275       .  A
O1113     Cu1119   1.959       .  S
O1113      C2915   1.264       .  A
O1114     Cu1119   1.974   1_655  S
O1114      C2916   1.278       .  A
O1115     Cu1120   1.980       .  S
O1115      C1124   1.264       .  A
O1116     Cu1120   1.971       .  S
O1116      C1123   1.272       .  A
O1117     Cu1120   2.018       .  S
O1117      C1122   1.275       .  A
O1118     Cu1120   1.977       .  S
O1118      C1121   1.274       .  A
Cu1119    Cu2912   2.368   1_455  S
Cu1120    Cu2911   2.368       .  S
C1121      O2903   1.276       .  A
C1121      C1747   1.454       .  S
C1122      O2904   1.275       .  A
C1122      C1437   1.467       .  S
C1123      O2905   1.264       .  A
C1123      C1177   1.437       .  S
C1124      O2906   1.278       .  A
C1124      C1187   1.460       .  S
O1125     Cu1133   2.070       .  S
O1125      C1135   1.287       .  A
O1126     Cu1133   2.020       .  S
O1126      C1136   1.281       .  A
O1127      C1137   1.270       .  A
O1128     Cu1133   1.942       .  S
O1128      C1138   1.258       .  A
O1129     Cu1134   1.996       .  S
O1129      C1138   1.281       .  A
O1130      C1137   1.268   1_545  A
O1131     Cu1134   1.989       .  S
O1131      C1136   1.273       .  A
O1132     Cu1134   2.002       .  S
O1132      C1135   1.275       .  A
Cu1133    Cu1134   2.369       .  S
C1135      C1727   1.501       .  S
C1136      C1427   1.465       .  S
C1137      C1154   1.442       .  S
C1138      C1167   1.459       .  S
O1139     Cu1147   2.045       .  S
O1139      C1149   1.281       .  A
O1140     Cu1147   2.029       .  S
O1140      C1150   1.281       .  A
O1141     Cu1147   1.958       .  S
O1141      C1151   1.264       .  A
O1142     Cu1147   1.966       .  S
O1142      C1152   1.274       .  A
O1143     Cu1148   1.983       .  S
O1143      C1152   1.265       .  A
O1144     Cu1148   1.967       .  S
O1144      C1151   1.273       .  A
O1145     Cu1148   1.985       .  S
O1145      C1150   1.270       .  A
O1146     Cu1148   2.012       .  S
O1146      C1149   1.277       .  A
Cu1147    Cu1148   2.349       .  S
C1149      C1687   1.496       .  S
C1150      C1397   1.462       .  S
C1151      C1164   1.435       .  S
C1152      C1157   1.453       .  S
C1153      C1154   1.402       .  A
C1153      C1158   1.388       .  A
C1153      H1160   1.084       .  S
C1154      C1155   1.402       .  A
C1155      C1156   1.392       .  A
C1155      F1162   1.358       .  S
C1156      C1157   1.400       .  A
C1156      H1161   1.083       .  S
C1157      C1158   1.400       .  A
C1158      F1159   1.357       .  S
C1163      C1164   1.404       .  A
C1163      C1168   1.392       .  A
C1163      H1170   1.084       .  S
C1164      C1165   1.401       .  A
C1165      C1166   1.392       .  A
C1165      F1172   1.356       .  S
C1166      C1167   1.401       .  A
C1166      H1171   1.083       .  S
C1167      C1168   1.399       .  A
C1168      F1169   1.357       .  S
C1173      C2966   1.399       .  A
C1173      C1178   1.393       .  A
C1173      H1180   1.080       .  S
C1174      C2965   1.399       .  A
C1174      C1175   1.404       .  A
C1175      C1176   1.397       .  A
C1175      F1182   1.357       .  S
C1176      C1177   1.401       .  A
C1176      H1181   1.083       .  S
C1177      C2970   1.404       .  A
C1178      C2969   1.404       .  A
C1178      F1179   1.358       .  S
C1183      C2976   1.401       .  A
C1183      C1188   1.393       .  A
C1183      H1190   1.084       .  S
C1184      C2975   1.401       .  A
C1184      C1185   1.401       .  A
C1185      C1186   1.390       .  A
C1185      F1192   1.358       .  S
C1186      C1187   1.403       .  A
C1186      H1191   1.081       .  S
C1187      C2980   1.401       .  A
C1188      C2979   1.401       .  A
C1188      F1189   1.355       .  S
C1193      C1194   1.398       .  A
C1193      C1198   1.390       .  A
C1193      H1200   1.084       .  S
C1194      C1195   1.402       .  A
C1195      C1196   1.392       .  A
C1195      F1202   1.356       .  S
C1196      C1197   1.399       .  A
C1196      H1201   1.084       .  S
C1197      C1198   1.405       .  A
C1198      F1199   1.358       .  S
C1203      C1204   1.402       .  A
C1203      C1208   1.392       .  A
C1203      H1210   1.084       .  S
C1204      C1205   1.402       .  A
C1205      C1206   1.395       .  A
C1205      F1212   1.358       .  S
C1206      C1207   1.402       .  A
C1206      H1211   1.083       .  S
C1207      C1208   1.399       .  A
C1208      F1209   1.356       .  S
C1213      C1214   1.404       .  A
C1213      C1218   1.395       .  A
C1214      C1215   1.398       .  A
C1215      C1216   1.390       .  A
C1215      F1222   1.355       .  S
C1216      C1217   1.402       .  A
C1216      H1221   1.084       .  S
C1217      C1218   1.400       .  A
C1223      C1224   1.401       .  A
C1223      C1228   1.395       .  A
C1223      H1230   1.083       .  S
C1224      C1225   1.403       .  A
C1225      C1226   1.395       .  A
C1225      F1232   1.355       .  S
C1226      C1227   1.401       .  A
C1226      H1231   1.084       .  S
C1227      C1228   1.405       .  A
C1228      F1229   1.357       .  S
C1233      C1234   1.413       .  A
C1233      C1238   1.423       .  A
C1233      H1240   1.083       .  S
C1234      C1235   1.410       .  A
C1235      C1236   1.412       .  A
C1235      F1242   1.352       .  S
C1236      C1237   1.408       .  A
C1236      H1241   1.084       .  S
C1237      C2827   1.539       .  S
C1237      C1238   1.419       .  A
C1238      F1239   1.355       .  S
C1243      C1244   1.409       .  A
C1243      C1248   1.409       .  A
C1243      H1250   1.081       .  S
C1244      C1245   1.419       .  A
C1245      C1246   1.432       .  A
C1245      F1252   1.356       .  S
C1246      C1247   1.418       .  A
C1246      H1251   1.083       .  S
C1247      C1248   1.414       .  A
C1248      F1249   1.353       .  S
C1253      C1258   1.426       .  A
C1253      H1260   1.083       .  S
C1254      C1255   1.411       .  A
C1255      C1256   1.408       .  A
C1255      F1262   1.355       .  S
C1256      C1257   1.410       .  A
C1256      H1261   1.083       .  S
C1257      C2825   1.543       .  S
C1258      F1259   1.355       .  S
C1263      C1264   1.409       .  A
C1263      C1268   1.410       .  A
C1263      H1270   1.083       .  S
C1265      C1266   1.429       .  A
C1265      F1272   1.356       .  S
C1266      H1271   1.083       .  S
C1267      C1268   1.414       .  A
C1268      F1269   1.357       .  S
C1273      C1274   1.401       .  A
C1273      C1278   1.394   1_556  A
C1273      H1280   1.084       .  S
C1274      C1275   1.408       .  A
C1275      C1276   1.402   1_556  A
C1275      F1282   1.352       .  S
C1276      C1277   1.399       .  A
C1276      H1281   1.083       .  S
C1277      C1278   1.402       .  A
C1278      F1279   1.355       .  S
C1283      C1284   1.402       .  A
C1283      C1288   1.400       .  A
C1283      H1290   1.083       .  S
C1284      C1285   1.405       .  A
C1285      C1286   1.396       .  A
C1285      F1292   1.358       .  S
C1286      C1287   1.401       .  A
C1286      H1291   1.084       .  S
C1287      C1288   1.407       .  A
C1288      F1289   1.356       .  S
C1293      C1294   1.405       .  A
C1293      C1298   1.402   1_554  A
C1293      H1300   1.083       .  S
C1294      C1295   1.408       .  A
C1295      C1296   1.405   1_554  A
C1295      F1302   1.353       .  S
C1296      C1297   1.402       .  A
C1296      H1301   1.084       .  S
C1297      C1298   1.401       .  A
C1298      F1299   1.354       .  S
C1303      C1304   1.401       .  A
C1303      C1308   1.394       .  A
C1303      H1310   1.075       .  S
C1304      C1305   1.411       .  A
C1305      C1306   1.409       .  A
C1305      F1312   1.357       .  S
C1306      C1307   1.408       .  A
C1306      H1311   1.082       .  S
C1307      C1308   1.405       .  A
C1313      C1314   1.402       .  A
C1313      C1318   1.387       .  A
C1313      H1320   1.083       .  S
C1314      C1315   1.403       .  A
C1315      C1316   1.393       .  A
C1315      F1322   1.356       .  S
C1316      C1317   1.400       .  A
C1316      H1321   1.084       .  S
C1317      C1318   1.399       .  A
C1318      F1319   1.357       .  S
C1323      C1324   1.401       .  A
C1323      C1328   1.390       .  A
C1323      H1330   1.084       .  S
C1324      C1325   1.403       .  A
C1325      C1326   1.388       .  A
C1325      F1332   1.357       .  S
C1326      C1327   1.398       .  A
C1326      H1331   1.079       .  S
C1327      C1328   1.404       .  A
C1328      F1329   1.357       .  S
C1333      C1334   1.402       .  A
C1333      C1338   1.392   1_554  A
C1333      H1340   1.084       .  S
C1334      C1335   1.404       .  A
C1335      C1336   1.399   1_554  A
C1335      F1342   1.357       .  S
C1336      C1337   1.404       .  A
C1336      H1341   1.084       .  S
C1337      C1338   1.400       .  A
C1338      F1339   1.358       .  S
C1343      C1344   1.404       .  A
C1343      C1348   1.399       .  A
C1343      H3142   1.082       .  S
C1344      C1345   1.402       .  A
C1345      C1346   1.394       .  A
C1345      F1352   1.358       .  S
C1346      C1347   1.402       .  A
C1346      H1351   1.084       .  S
C1347      C1348   1.403       .  A
C1348      F3141   1.356       .  S
F1349      C3140   1.356       .  S
H1350      C3135   1.082       .  S
C1353      C1354   1.401       .  A
C1353      C1358   1.393       .  A
C1353      H1360   1.082       .  S
C1354      C1355   1.400       .  A
C1355      C1356   1.388       .  A
C1356      C1357   1.402       .  A
C1357      C1358   1.400       .  A
C1358      F1359   1.358       .  S
C1363      C1364   1.403       .  A
C1363      C1368   1.392       .  A
C1364      C1365   1.402       .  A
C1365      C1366   1.395       .  A
C1365      F1372   1.357       .  S
C1366      C1367   1.401       .  A
C1366      H1371   1.084       .  S
C1367      C1368   1.401       .  A
C1373      C1374   1.406       .  A
C1373      C1378   1.393   1_556  A
C1373      H3172   1.083   1_455  S
C1374      C1375   1.413       .  A
C1375      C1376   1.400   1_556  A
C1375      F1382   1.357       .  S
C1376      C1377   1.400       .  A
C1376      H1381   1.084       .  S
C1377      C1378   1.401       .  A
C1378      F3171   1.358   1_455  S
F1379      C3170   1.358       .  S
H1380      C3165   1.083       .  S
C1383      C1384   1.404       .  A
C1383      C1388   1.399       .  A
C1383      H3182   1.082   1_455  S
C1384      C1385   1.402       .  A
C1385      C1386   1.391       .  A
C1385      F1392   1.350       .  S
C1386      C1387   1.398       .  A
C1386      H1391   1.083       .  S
C1387      C1388   1.406       .  A
C1388      F3181   1.357       .  S
F1389      C3180   1.357       .  S
H1390      C3175   1.082       .  S
C1393      C1394   1.406       .  A
C1393      C1398   1.394       .  A
C1393      H1400   1.081       .  S
C1394      C1395   1.412       .  A
C1395      C1396   1.400       .  A
C1395      F1402   1.357       .  S
C1396      C1397   1.401       .  A
C1396      H1401   1.084       .  S
C1397      C1398   1.399       .  A
C1398      F1399   1.357       .  S
C1403      C1404   1.399       .  A
C1403      C1408   1.386       .  A
C1403      H1410   1.075       .  S
C1404      C1405   1.405       .  A
C1405      C1406   1.397       .  A
C1405      F1412   1.358       .  S
C1406      C1407   1.404       .  A
C1406      H1411   1.084       .  S
C1407      C1408   1.399       .  A
C1408      F1409   1.355       .  S
C1413      C1414   1.394       .  A
C1413      C1418   1.383       .  A
C1413      H1420   1.071       .  S
C1414      C1415   1.404       .  A
C1415      C1416   1.393       .  A
C1415      F1422   1.357       .  S
C1416      C1417   1.404       .  A
C1416      H1421   1.083       .  S
C1417      C1418   1.399       .  A
C1418      F1419   1.350       .  S
C1423      C1424   1.404       .  A
C1423      C1428   1.393       .  A
C1423      H1430   1.084       .  S
C1424      C1425   1.402       .  A
C1425      C1426   1.401       .  A
C1425      F1432   1.356       .  S
C1426      C1427   1.406       .  A
C1426      H1431   1.083       .  S
C1427      C1428   1.400       .  A
C1428      F1429   1.358       .  S
C1433      C1434   1.410       .  A
C1433      C1438   1.404       .  A
C1433      H1440   1.083       .  S
C1434      C3227   1.406       .  A
C1435      C3226   1.406       .  A
C1435      C1436   1.396       .  A
C1435      F1442   1.358       .  S
C1436      C3229   1.402       .  A
C1436      H1441   1.084       .  S
C1437      C3228   1.402       .  A
C1437      C1438   1.402       .  A
C1438      F1439   1.357       .  S
C1443      C1444   1.403       .  A
C1443      C1448   1.392       .  A
C1443      H1450   1.083       .  S
C1444      C2739   1.457       .  S
C1444      C3237   1.401       .  A
C1445      C3236   1.401       .  A
C1445      C1446   1.392       .  A
C1445      F1452   1.355       .  S
C1446      C3239   1.400       .  A
C1446      H1451   1.084       .  S
C1447      C3238   1.400       .  A
C1447      C1448   1.402       .  A
C1448      F1449   1.358       .  S
C1453      C1454   1.400       .  A
C1453      C1458   1.391       .  A
C1453      H1460   1.084       .  S
C1454      C3247   1.401       .  A
C1455      C3246   1.401       .  A
C1455      C1456   1.391       .  A
C1455      F1462   1.357       .  S
C1456      C3249   1.399       .  A
C1456      H1461   1.084       .  S
C1457      C2740   1.446       .  S
C1457      C3248   1.399       .  A
C1457      C1458   1.402       .  A
C1458      F1459   1.358       .  S
C1463      C1464   1.400       .  A
C1463      C1468   1.395       .  A
C1463      H1470   1.082       .  S
C1464      C3257   1.405   1_545  A
C1465      C3256   1.405   1_565  A
C1465      C1466   1.396       .  A
C1466      C3259   1.400       .  A
C1466      H1471   1.083       .  S
C1467      C3258   1.400       .  A
C1467      C1468   1.403   1_565  A
C1468      F1469   1.357       .  S
C1473      C1474   1.407       .  A
C1473      C1478   1.393       .  A
C1473      H1480   1.083       .  S
C1474      C1475   1.409       .  A
C1475      C1476   1.397       .  A
C1475      F1482   1.355       .  S
C1476      C1477   1.405       .  A
C1476      H1481   1.083       .  S
C1477      C1478   1.405       .  A
C1478      F1479   1.355       .  S
C1483      C1484   1.398       .  A
C1483      C1488   1.394       .  A
C1483      H1490   1.083       .  S
C1484      C1485   1.408       .  A
C1485      C1486   1.402       .  A
C1485      F1492   1.356       .  S
C1486      C1487   1.401       .  A
C1486      H1491   1.082       .  S
C1487      C1488   1.408       .  A
C1488      F1489   1.358       .  S
C1493      C1494   1.414       .  A
C1493      C1498   1.413       .  A
C1493      H1500   1.082       .  S
C1494      C1495   1.410       .  A
C1495      C1496   1.421       .  A
C1495      F1502   1.354       .  S
C1496      C1497   1.415       .  A
C1496      H1501   1.083       .  S
C1497      C1498   1.413       .  A
C1498      F1499   1.356       .  S
C1503      C1504   1.421       .  A
C1503      C1508   1.423       .  A
C1503      H1510   1.083       .  S
C1504      C1505   1.413       .  A
C1505      C1506   1.420       .  A
C1505      F1512   1.353       .  S
C1506      C1507   1.416       .  A
C1506      H1511   1.080       .  S
C1507      C1508   1.413       .  A
C1508      F1509   1.357       .  S
C1513      C1514   1.408       .  A
C1513      C1518   1.406       .  A
C1513      H1520   1.083       .  S
C1515      F1522   1.357       .  S
C1516      C1517   1.403       .  A
C1517      C1518   1.411       .  A
C1518      F1519   1.356       .  S
C1523      C1524   1.405       .  A
C1523      C1528   1.400       .  A
C1523      H1530   1.082       .  S
C1524      C1525   1.408       .  A
C1525      C1526   1.394       .  A
C1525      F1532   1.358       .  S
C1526      C1527   1.399       .  A
C1526      H1531   1.083       .  S
C1527      C1528   1.401       .  A
C1528      F1529   1.354       .  S
C1533      C1534   1.403   1_655  A
C1533      C1538   1.385       .  A
C1533      H3332   1.082       .  S
C1534      C1535   1.413       .  A
C1535      C1536   1.407       .  A
C1535      F1542   1.356       .  S
C1536      C1537   1.408       .  A
C1536      H1541   1.083       .  S
C1537      C1538   1.406   1_455  A
C1538      F3331   1.358       .  S
F1539      C3330   1.358       .  S
H1540      C3325   1.082       .  S
C1543      C1544   1.407       .  A
C1543      C1548   1.409       .  A
C1543      H1550   1.081       .  S
C1544      C1545   1.408   1_455  A
C1545      C1546   1.394       .  A
C1545      F1552   1.357       .  S
C1546      C1547   1.404   1_655  A
C1546      H3343   1.083       .  S
C1547      C1548   1.412       .  A
C1548      F1549   1.357       .  S
H1551      C3338   1.083       .  S
C1553      C1554   1.406       .  A
C1553      C1558   1.416       .  A
C1553      H1560   1.083       .  S
C1554      C3347   1.422       .  A
C1555      C3346   1.422       .  A
C1555      C1556   1.416       .  A
C1555      F1562   1.357       .  S
C1556      C3349   1.408       .  A
C1556      H1561   1.082       .  S
C1557      C3348   1.408       .  A
C1557      C1558   1.423       .  A
C1558      F1559   1.356       .  S
C1563      C1564   1.417   1_655  A
C1563      C1568   1.417       .  A
C1563      H1570   1.083       .  S
C1564      C1565   1.412       .  A
C1565      C1566   1.419       .  A
C1565      F3364   1.356       .  S
C1566      C1567   1.416       .  A
C1566      H3363   1.083       .  S
C1567      C1568   1.412   1_455  A
C1568      F1569   1.357       .  S
H1571      C3358   1.083       .  S
F1572      C3357   1.356       .  S
C1573      C1574   1.408       .  A
C1573      C1578   1.394       .  A
C1573      H1580   1.084       .  S
C1574      C2471   1.407       .  A
C1575      C2470   1.407   1_565  A
C1575      F1582   1.356       .  S
C1576      C3369   1.408       .  A
C1577      C3368   1.408   1_455  A
C1577      C1578   1.407       .  A
C1578      F1579   1.356       .  S
C1583      C3376   1.405       .  A
C1583      C1588   1.400       .  A
C1583      H1590   1.083       .  S
C1584      C3375   1.405       .  A
C1584      C1585   1.406   1_545  A
C1585      C1586   1.384       .  A
C1585      F1592   1.357       .  S
C1586      C1587   1.401   1_565  A
C1586      H1591   1.083       .  S
C1587      C2723   1.474       .  S
C1587      C3380   1.407       .  A
C1588      C3379   1.407       .  A
C1588      F1589   1.352       .  S
C1593      C1594   1.410       .  A
C1593      C1598   1.410       .  A
C1593      H1600   1.083       .  S
C1594      C1595   1.409       .  A
C1595      C1596   1.403       .  A
C1595      F1602   1.356       .  S
C1596      C1597   1.406       .  A
C1596      H1601   1.084       .  S
C1597      C1598   1.408       .  A
C1598      F1599   1.357       .  S
C1603      C1604   1.401       .  A
C1603      C1608   1.395       .  A
C1603      H1610   1.083       .  S
C1604      C1605   1.405       .  A
C1605      C1606   1.395       .  A
C1605      F1612   1.356       .  S
C1606      C1607   1.401       .  A
C1606      H1611   1.083       .  S
C1607      C1608   1.407       .  A
C1613      C1614   1.420       .  A
C1613      C1618   1.422       .  A
C1613      H1620   1.083       .  S
C1614      C2699   1.541       .  S
C1614      C1615   1.412       .  A
C1615      C1616   1.416       .  A
C1615      F1622   1.356       .  S
C1616      C1617   1.417       .  A
C1616      H1621   1.083       .  S
C1617      C1618   1.411       .  A
C1618      F1619   1.357       .  S
C1623      C1624   1.410       .  A
C1623      C1628   1.420       .  A
C1623      H1630   1.082       .  S
C1624      C1625   1.421       .  A
C1625      C1626   1.423       .  A
C1625      F1632   1.357       .  S
C1626      C1627   1.413       .  A
C1626      H1631   1.083       .  S
C1627      C1628   1.420       .  A
C1628      F1629   1.357       .  S
C1633      C1634   1.401       .  A
C1633      C1638   1.393       .  A
C1633      H3432   1.084       .  S
C1634      C1635   1.407       .  A
C1635      C1636   1.404       .  A
C1635      F1642   1.357   1_455  S
C1636      C1637   1.406       .  A
C1636      H1641   1.083   1_455  S
C1637      C1638   1.405       .  A
C1638      F3431   1.356       .  S
F1639      C3430   1.356       .  S
H1640      C3425   1.084       .  S
C1643      C1644   1.411       .  A
C1643      C1648   1.417       .  A
C1644      C2698   1.537       .  S
C1644      C1645   1.417       .  A
C1645      C1646   1.422       .  A
C1645      F1652   1.357       .  S
C1646      C1647   1.412       .  A
C1646      H1651   1.082       .  S
C1647      C1648   1.415       .  A
C1653      C1654   1.419       .  A
C1653      C1658   1.419       .  A
C1653      H1660   1.079       .  S
C1654      C1655   1.414       .  A
C1655      C1656   1.420       .  A
C1656      C1657   1.414       .  A
C1657      C1658   1.410       .  A
C1658      F1659   1.357       .  S
C1663      C1664   1.404       .  A
C1663      C1668   1.394       .  A
C1663      H3462   1.084   1_455  S
C1664      C1665   1.403       .  A
C1665      C1666   1.389       .  A
C1665      F1672   1.357       .  S
C1666      C1667   1.400       .  A
C1666      H1671   1.082       .  S
C1667      C1668   1.402       .  A
C1668      F3461   1.357       .  S
F1669      C3460   1.357       .  S
H1670      C3455   1.084       .  S
C1673      C1674   1.413       .  A
C1673      C1678   1.411       .  A
C1673      H1680   1.083       .  S
C1674      C1675   1.411       .  A
C1675      C1676   1.411       .  A
C1675      F1682   1.353       .  S
C1676      C1677   1.413       .  A
C1676      H1681   1.083       .  S
C1677      C1678   1.411       .  A
C1678      F1679   1.356       .  S
C1683      C1684   1.408       .  A
C1683      C1688   1.409       .  A
C1683      H1690   1.083       .  S
C1684      C1685   1.407       .  A
C1685      C1686   1.398       .  A
C1685      F1692   1.358       .  S
C1686      C1687   1.406       .  A
C1686      H1691   1.082       .  S
C1687      C1688   1.412       .  A
C1688      F1689   1.356       .  S
C1693      C1694   1.415       .  A
C1693      C1698   1.418       .  A
C1693      H1700   1.083       .  S
C1694      C1695   1.413       .  A
C1695      C1696   1.423       .  A
C1695      F1702   1.357       .  S
C1696      C1697   1.418       .  A
C1696      H1701   1.083       .  S
C1697      C1698   1.415       .  A
C1698      F1699   1.356       .  S
C1703      C1704   1.419       .  A
C1703      C1708   1.422       .  A
C1703      H1710   1.083       .  S
C1704      C1705   1.410       .  A
C1705      C1706   1.420       .  A
C1705      F1712   1.357       .  S
C1706      C1707   1.422       .  A
C1706      H1711   1.083       .  S
C1707      C1708   1.413       .  A
C1708      F1709   1.355       .  S
C1713      C1714   1.406       .  A
C1713      C1718   1.396       .  A
C1713      H1720   1.084       .  S
C1714      C1715   1.409       .  A
C1715      C1716   1.402       .  A
C1715      F1722   1.356       .  S
C1716      C1717   1.411       .  A
C1716      H1721   1.077       .  S
C1717      C1718   1.407       .  A
C1718      F1719   1.351       .  S
C1723      C1724   1.410       .  A
C1723      C1728   1.407       .  A
C1724      C1725   1.407       .  A
C1725      C1726   1.406       .  A
C1725      F1732   1.357       .  S
C1726      C1727   1.412       .  A
C1726      H1731   1.083       .  S
C1727      C1728   1.408       .  A
C1733      C1734   1.410       .  A
C1733      C1738   1.397       .  A
C1733      H1740   1.078       .  S
C1734      C1735   1.420   1_455  A
C1735      C3528   1.387       .  A
C1735      F3534   1.356       .  S
C1736      C3527   1.387       .  A
C1736      C3529   1.393       .  A
C1736      H1741   1.079       .  S
C1737      C3528   1.393   1_455  A
C1737      C1738   1.402       .  A
C1738      F1739   1.352       .  S
F1742      C3527   1.356       .  S
C1743      C1744   1.398       .  A
C1743      C1748   1.389       .  A
C1743      H1750   1.084       .  S
C1744      C3537   1.405       .  A
C1745      C3536   1.405       .  A
C1745      C1746   1.389       .  A
C1745      F1752   1.358       .  S
C1746      C1747   1.400       .  A
C1746      H1751   1.084       .  S
C1747      C3540   1.403       .  A
C1748      C3539   1.403       .  A
C1748      F1749   1.356       .  S
C1753      C1754   1.416       .  A
C1753      C1758   1.421       .  A
C1753      H1760   1.083       .  S
C1754      C2689   1.535   1_565  S
C1754      C3547   1.407       .  A
C1755      C3546   1.407       .  A
C1755      C1756   1.416       .  A
C1755      F1762   1.357       .  S
C1756      C3549   1.421       .  A
C1756      H1761   1.074       .  S
C1757      C3548   1.421       .  A
C1757      C1758   1.413       .  A
C1758      F1759   1.357       .  S
C1763      C3556   1.416       .  A
C1763      C1768   1.421       .  A
C1763      H1770   1.083       .  S
C1764      C3555   1.416       .  A
C1764      C1765   1.414       .  A
C1765      C1766   1.417       .  A
C1765      F1772   1.353       .  S
C1766      C1767   1.411       .  A
C1766      H1771   1.083       .  S
C1767      C3560   1.415       .  A
C1768      C3559   1.415       .  A
C1768      F1769   1.357       .  S
C1773      C3566   1.398       .  A
C1773      C1778   1.379       .  A
C1773      H1780   1.079       .  S
C1774      C3565   1.398   1_455  A
C1774      C1775   1.405       .  A
C1775      C1776   1.393       .  A
C1775      F1782   1.355       .  S
C1776      C1777   1.405       .  A
C1776      H1781   1.082       .  S
C1777      C3570   1.407   1_455  A
C1778      C3569   1.407       .  A
C1778      F1779   1.354       .  S
C1783      C3576   1.404       .  A
C1783      C1788   1.394       .  A
C1783      H1790   1.083       .  S
C1784      C3575   1.404       .  A
C1784      C1785   1.402   1_545  A
C1785      C1786   1.386       .  A
C1785      F1792   1.359       .  S
C1786      C1787   1.400   1_565  A
C1786      H1791   1.084       .  S
C1787      C3580   1.401       .  A
C1788      C3579   1.401       .  A
C1788      F1789   1.356       .  S
C1793      C2683   1.461       .  S
C1794      C2663   1.536       .  S
C1794      C2673   1.480       .  S
C1795      C2640   1.463       .  S
C1795      C2660   1.537       .  S
C1795      C1796   1.383       .  D
C1796      C2633   1.479       .  S
C1796      C2653   1.549       .  S
C1797      C3486   1.542   1_545  S
C1797      C2620   1.505       .  S
C1797      C1798   1.403       .  D
C1798      C2603   1.549       .  S
C1798      C2610   1.506       .  S
C1799      C2580   1.503       .  S
C1799      C2600   1.541       .  S
C1799      C1800   1.405       .  D
C1800      C2570   1.524       .  S
C1800      C2593   1.547       .  S
C1801      C2553   1.538       .  S
C1801      C2563   1.466       .  S
C1801      C1802   1.381       .  D
C1802      C2670   1.475       .  S
C1803      C2630   1.510       .  S
C1803      C1804   1.401       .  D
C1804      C2523   1.546       .  S
C1804      C2530   1.484       .  S
C1805      C2543   1.542       .  S
C1805      C2613   1.506       .  S
C1805      C1806   1.392       .  D
C1806      C2500   1.476       .  S
C1806      C2550   1.539       .  S
C1807      C2520   1.545       .  S
C1807      C2573   1.523       .  S
C1807      C1808   1.403       .  D
C1808      C2493   1.501       .  S
C1808      C2513   1.535       .  S
C1809      C2450   1.538       .  S
C1809      C2480   1.484       .  S
C1809      C1810   1.393       .  D
C1810      C3356   1.541       .  S
C1810      C3366   1.495       .  S
C1811      C2440   1.499       .  S
C1811      C2463   1.537       .  S
C1811      C1812   1.394       .  D
C1812      C2433   1.494       .  S
C1812      C2453   1.538       .  S
C1813      C3289   1.540       .  S
C1813      C2413   1.492   1_565  S
C1813      C1814   1.390   1_565  D
C1814      C2403   1.542       .  S
C1814      C2423   1.479       .  S
C1815      C2373   1.491       .  S
C1815      C2400   1.546       .  S
C1815      C1816   1.394       .  D
C1816      C2380   1.478       .  S
C1816      C2390   1.534       .  S
O1817     Cu1825   2.023       .  S
O1817      C1827   1.278       .  A
O1818     Cu1825   2.008       .  S
O1818      C1828   1.278       .  A
O1819     Cu2721   1.979       .  S
O1819      C1829   1.277       .  A
O1820     Cu1825   1.991   1_655  S
O1820      C1830   1.269       .  A
O1821     Cu1826   1.982       .  S
O1822     Cu2722   1.979   1_545  S
O1823     Cu1826   1.989       .  S
O1824     Cu1826   1.970       .  S
Cu1825     O2715   1.979       .  S
Cu1826     O2718   1.980       .  S
C1828      C2360   1.462       .  S
C1829      C2350   1.454       .  S
C1830      C2343   1.448       .  S
O1831     Cu1839   2.005       .  S
O1832     Cu1839   2.002       .  S
O1832      C1842   1.276   1_655  A
O1833     Cu1839   1.994       .  S
O1834     Cu1839   1.988   1_455  S
O1835     Cu1840   1.979       .  S
O1835      C1844   1.263       .  A
O1836     Cu1840   1.981       .  S
O1836      C1843   1.277       .  A
O1837     Cu1840   2.024       .  S
O1838     Cu1840   2.037       .  S
O1838      C1841   1.280       .  A
C1841      C2443   1.490       .  S
C1842      C2330   1.481       .  S
O1845     Cu1853   2.013       .  S
O1845      C1855   1.280       .  A
O1846     Cu1853   2.010   1_545  S
O1846      C1856   1.276       .  A
O1847     Cu1853   1.985       .  S
O1847      C2753   1.275       .  A
O1848     Cu1853   1.978   1_545  S
O1848      C1858   1.269       .  A
O1849     Cu1854   1.984       .  S
O1849      C1858   1.278       .  A
O1850     Cu1854   1.971       .  S
O1850      C2753   1.264   1_545  A
O1851     Cu1854   1.989       .  S
O1851      C1856   1.274       .  A
O1852     Cu1854   1.978       .  S
O1852      C1855   1.272   1_545  A
Cu1853    Cu1854   2.370   1_565  S
C1855      C2420   1.468       .  S
C1856      C2320   1.464       .  S
C1857      O2743   1.275       .  A
C1857      O2746   1.264       .  A
C1857      C2303   1.446       .  S
C1858      C2310   1.450       .  S
O1859     Cu1867   2.013       .  S
O1859      C1869   1.278       .  A
O1860     Cu1867   2.008       .  S
O1860      C1870   1.277       .  A
O1861     Cu1867   1.994       .  S
O1861      C1871   1.268       .  A
O1862     Cu1867   1.985       .  S
O1862      C1872   1.279       .  A
O1863     Cu1868   1.979       .  S
O1863      C1872   1.266       .  A
O1864     Cu1868   1.980       .  S
O1864      C1871   1.279       .  A
O1865     Cu1868   1.994       .  S
O1865      C1870   1.277       .  A
O1866     Cu1868   1.994       .  S
O1866      C1869   1.277       .  A
Cu1867    Cu1868   2.371       .  S
C1869      C2383   1.470       .  S
C1870      C2290   1.479       .  S
C1871      C2300   1.465       .  S
C1872      C2313   1.452       .  S
O1873     Cu1881   2.000       .  S
O1873      C1883   1.275       .  A
O1874     Cu1881   2.001       .  S
O1874      C1884   1.276       .  A
O1875      C1885   1.278       .  A
O1876     Cu1881   1.985       .  S
O1876      C1886   1.269       .  A
O1877     Cu1882   1.976   1_545  S
O1877      C1886   1.273       .  A
O1878      C1885   1.265   1_455  A
O1879     Cu1882   2.007   1_545  S
O1879      C1884   1.276       .  A
O1880     Cu1882   2.008       .  S
O1880      C1883   1.278   1_565  A
Cu1881    Cu1882   2.371   1_545  S
C1883      C2280   1.472       .  S
C1884      C2273   1.464       .  S
C1885      C2250   1.454       .  S
C1886      C2260   1.449       .  S
O1887     Cu1895   2.000       .  S
O1887      C1897   1.276       .  A
O1888     Cu1895   2.005       .  S
O1888      C1898   1.276       .  A
O1889      C1899   1.277       .  A
O1890     Cu1895   1.971       .  S
O1890      C1900   1.266       .  A
O1891     Cu1896   1.974       .  S
O1891      C1900   1.275       .  A
O1892      C1899   1.262   1_455  A
O1893     Cu1896   1.990       .  S
O1893      C1898   1.275       .  A
O1894     Cu1896   2.002       .  S
O1894      C1897   1.276       .  A
Cu1895    Cu1896   2.375       .  S
C1897      C2243   1.463       .  S
C1898      C2230   1.461       .  S
C1899      C2213   1.453       .  S
C1900      C2220   1.440       .  S
O1901     Cu1909   2.019       .  S
O1901      C1911   1.279       .  A
O1902     Cu1909   2.022       .  S
O1902      C1912   1.281       .  A
O1903     Cu1909   1.975       .  S
O1903      C1913   1.277       .  A
O1904     Cu1909   1.976   1_565  S
O1904      C1914   1.266       .  A
O1905     Cu1910   1.986   1_565  S
O1905      C1914   1.277       .  A
O1906     Cu1910   1.984       .  S
O1906      C1913   1.265       .  A
O1907     Cu1910   2.025       .  S
O1907      C1912   1.278       .  A
O1908     Cu1910   2.028       .  S
O1908      C1911   1.280       .  A
Cu1909    Cu1910   2.370       .  S
C1911      C2190   1.485       .  S
C1912      C2200   1.490       .  S
C1913      C2263   1.458       .  S
C1914      C2253   1.445       .  S
O1915     Cu1923   1.999       .  S
O1915      C1925   1.275       .  A
O1916     Cu1923   1.998       .  S
O1916      C1926   1.276       .  A
O1917     Cu1923   1.974       .  S
O1917      C1927   1.279       .  A
O1918     Cu1923   1.970       .  S
O1918      C1928   1.266       .  A
O1919     Cu1924   1.986       .  S
O1919      C1928   1.276       .  A
O1920     Cu1924   1.986       .  S
O1920      C1927   1.265       .  A
O1921     Cu1924   2.013       .  S
O1921      C1926   1.278       .  A
O1922     Cu1924   2.013       .  S
O1922      C1925   1.276       .  A
Cu1923    Cu1924   2.374       .  S
C1925      C2173   1.464       .  S
C1926      C2180   1.466       .  S
C1927      C2223   1.457       .  S
C1928      C2210   1.447       .  S
C1929      C2473   1.494       .  S
C1929      C1930   1.386       .  D
C1930      C2163   1.539       .  S
C1930      C2283   1.477       .  S
C1931      C2430   1.493       .  S
C1931      C1932   1.385       .  D
C1932      C2140   1.539       .  S
C1932      C2240   1.479       .  S
C1933      C2150   1.537       .  S
C1933      C2410   1.494       .  S
C1933      C1934   1.388       .  D
C1934      C2160   1.541       .  S
C1934      C2203   1.496       .  S
C1935      C2143   1.543       .  S
C1935      C2183   1.481       .  S
C1935      C1936   1.385       .  D
C1936      C2130   1.539       .  S
C1936      C2370   1.494       .  S
O1937     Cu1945   1.992       .  S
O1937      C1947   1.275       .  A
O1938     Cu1945   2.004       .  S
O1938      C1948   1.278       .  A
O1939      C1949   1.274       .  A
O1940     Cu1945   1.981   1_565  S
O1940      C1950   1.264       .  A
O1941     Cu1946   1.957   1_565  S
O1941      C1950   1.275       .  A
O1942      C1949   1.263   1_455  A
O1943     Cu1946   2.001       .  S
O1943      C1948   1.276       .  A
O1944     Cu1946   1.988       .  S
O1944      C1947   1.276       .  A
Cu1945    Cu1946   2.370       .  S
C1947      C2560   1.461       .  S
C1948      C2270   1.481       .  S
C1949      C2113   1.439       .  S
C1950      C2120   1.461       .  S
O1951     Cu1959   2.024       .  S
O1951      C1961   1.278       .  A
O1952     Cu1959   2.007       .  S
O1952      C1962   1.278       .  A
O1953      C1963   1.274       .  A
O1954     Cu1959   1.967       .  S
O1954      C1964   1.262       .  A
O1955     Cu1960   1.972       .  S
O1955      C1964   1.277       .  A
O1956      C1963   1.266   1_455  A
O1957     Cu1960   1.990       .  S
O1957      C1962   1.274       .  A
O1958     Cu1960   1.998       .  S
O1958      C1961   1.277       .  A
Cu1959    Cu1960   2.373       .  S
C1961      C2533   1.476       .  S
C1962      C2233   1.459       .  S
C1963      C2093   1.444       .  S
C1964      C2103   1.461       .  S
O1965     Cu1973   2.006       .  S
O1965      C1975   1.278       .  A
O1966     Cu1973   2.023       .  S
O1966      C1976   1.278       .  A
O1967     Cu1973   1.967       .  S
O1967      C1977   1.262       .  A
O1968     Cu1973   1.978       .  S
O1968      C1978   1.273   1_545  A
O1969     Cu1974   1.967   1_565  S
O1969      C1978   1.267       .  A
O1970     Cu1974   1.974       .  S
O1970      C1977   1.277       .  A
O1971     Cu1974   2.019       .  S
O1971      C1976   1.278       .  A
O1972     Cu1974   1.990       .  S
O1972      C1975   1.275       .  A
Cu1973    Cu1974   2.371       .  S
C1975      C2503   1.465       .  S
C1976      C2193   1.476       .  S
C1977      C2110   1.459       .  S
C1978      C2123   1.444       .  S
O1979     Cu1987   2.037       .  S
O1979      C1989   1.282       .  A
O1980     Cu1987   2.013       .  S
O1980      C1990   1.279       .  A
O1981     Cu1987   1.939       .  S
O1981      C1991   1.261       .  A
O1982     Cu1987   1.967       .  S
O1982      C1992   1.274       .  A
O1983     Cu1988   1.987       .  S
O1983      C1992   1.264       .  A
O1984     Cu1988   1.983       .  S
O1984      C1991   1.275       .  A
O1985     Cu1988   2.005       .  S
O1985      C1990   1.276       .  A
O1986     Cu1988   2.032       .  S
O1986      C1989   1.279       .  A
Cu1987    Cu1988   2.366       .  S
C1989      C2490   1.496       .  S
C1990      C2170   1.473       .  S
C1991      C2100   1.439       .  S
C1992      C2090   1.456       .  S
O1993     Cu2001   1.978       .  S
O1994     Cu2001   2.000       .  S
O1995     Cu2897   1.980       .  S
O1996     Cu2001   1.971       .  S
O1997     Cu2002   1.969       .  S
O1997      C2006   1.276       .  A
O1998     Cu2898   1.958   1_645  S
O1998      C2005   1.262       .  A
O1999     Cu2002   1.996       .  S
O1999      C2004   1.276       .  A
O2000     Cu2002   1.984       .  S
O2000      C2003   1.276       .  A
Cu2001     O2891   1.980       .  S
Cu2002     O2894   1.958   1_455  S
C2003      C2680   1.455       .  S
C2004      C2363   1.459       .  S
C2005      C2080   1.436       .  S
C2006      C2070   1.462       .  S
O2007     Cu2015   1.984       .  S
O2008     Cu2015   2.008       .  S
O2009     Cu2015   1.959       .  S
O2010     Cu2015   1.974       .  S
O2011     Cu2016   1.980       .  S
O2011      C2020   1.264       .  A
O2012     Cu2016   1.972   1_455  S
O2012      C2019   1.272       .  A
O2013     Cu2016   2.018       .  S
O2013      C2018   1.275   1_655  A
O2014     Cu2016   1.978   1_455  S
O2014      C2017   1.274       .  A
C2017      C2643   1.454       .  S
C2018      C2333   1.467       .  S
C2019      C2073   1.437       .  S
C2020      C2083   1.460       .  S
O2021     Cu2029   2.071       .  S
O2021      C2031   1.287   1_565  A
O2022     Cu2029   2.020       .  S
O2022      C2032   1.281   1_565  A
O2023     Cu2925   1.953       .  S
O2023      C2033   1.270       .  A
O2024     Cu2029   1.942   1_545  S
O2024      C2034   1.258       .  A
O2025     Cu2030   1.996       .  S
O2025      C2034   1.281       .  A
O2026     Cu2926   1.990       .  S
O2026      C2033   1.268       .  A
O2027     Cu2030   1.989       .  S
O2027      C2032   1.273       .  A
O2028     Cu2030   2.002       .  S
O2028      C2031   1.275       .  A
Cu2029     O2919   1.953       .  S
Cu2029    Cu2030   2.369   1_565  S
Cu2030     O2922   1.990       .  S
C2031      C2623   1.501       .  S
C2032      C2323   1.465       .  S
C2033      C2050   1.442       .  S
C2034      C2063   1.459       .  S
O2035     Cu2043   2.045       .  S
O2035      C2045   1.281       .  A
O2036     Cu2043   2.029       .  S
O2036      C2046   1.281       .  A
O2037     Cu2043   1.958       .  S
O2037      C2047   1.264       .  A
O2038     Cu2043   1.965       .  S
O2038      C2048   1.274       .  A
O2039     Cu2044   1.983       .  S
O2039      C2048   1.265       .  A
O2040     Cu2044   1.967       .  S
O2040      C2047   1.273       .  A
O2041     Cu2044   1.985       .  S
O2041      C2046   1.270       .  A
O2042     Cu2044   2.012       .  S
O2042      C2045   1.277       .  A
Cu2043    Cu2044   2.349       .  S
C2045      C2583   1.496       .  S
C2046      C2293   1.462       .  S
C2047      C2060   1.435       .  S
C2048      C2053   1.453       .  S
C2049      C2050   1.402       .  A
C2049      C2054   1.388       .  A
C2049      H2056   1.084       .  S
C2050      C2051   1.402       .  A
C2051      C2052   1.392       .  A
C2051      F2058   1.358       .  S
C2052      C2053   1.400       .  A
C2052      H2057   1.083       .  S
C2053      C2054   1.400       .  A
C2054      F2055   1.357       .  S
C2059      C2060   1.404       .  A
C2059      C2064   1.392       .  A
C2059      H2066   1.084       .  S
C2060      C2061   1.401       .  A
C2061      C2062   1.392       .  A
C2061      F2068   1.356       .  S
C2062      C2063   1.401       .  A
C2062      H2067   1.083       .  S
C2063      C2064   1.399       .  A
C2064      F2065   1.357       .  S
C2069      C2074   1.393       .  A
C2069      H2076   1.080       .  S
C2070      C2071   1.404       .  A
C2071      C2072   1.397       .  A
C2071      F2078   1.357       .  S
C2072      C2073   1.401       .  A
C2072      H2077   1.083       .  S
C2074      F2075   1.358       .  S
C2079      C2084   1.393       .  A
C2079      H2086   1.084       .  S
C2080      C2081   1.401       .  A
C2081      C2082   1.390       .  A
C2081      F2088   1.358       .  S
C2082      C2083   1.403       .  A
C2082      H2087   1.081       .  S
C2084      F2085   1.355       .  S
C2089      C2090   1.398       .  A
C2089      C2094   1.390       .  A
C2089      H2096   1.084       .  S
C2090      C2091   1.402       .  A
C2091      C2092   1.392       .  A
C2091      F2098   1.356       .  S
C2092      C2093   1.399       .  A
C2092      H2097   1.084       .  S
C2093      C2094   1.405       .  A
C2094      F2095   1.358       .  S
C2099      C2100   1.402       .  A
C2099      C2104   1.392       .  A
C2099      H2106   1.084       .  S
C2100      C2101   1.402       .  A
C2101      C2102   1.395       .  A
C2101      F2108   1.358       .  S
C2102      C2103   1.402       .  A
C2102      H2107   1.083       .  S
C2103      C2104   1.399       .  A
C2104      F2105   1.356       .  S
C2109      C2110   1.404       .  A
C2109      C2114   1.395       .  A
C2109      H3012   1.084       .  S
C2110      C2111   1.398       .  A
C2111      C2112   1.390       .  A
C2111      F2118   1.355       .  S
C2112      C2113   1.403       .  A
C2112      H2117   1.084       .  S
C2113      C2114   1.400       .  A
C2114      F3011   1.357       .  S
F2115      C3010   1.357       .  S
H2116      C3005   1.084       .  S
C2119      C2120   1.401       .  A
C2119      C2124   1.395       .  A
C2119      H2126   1.083       .  S
C2120      C2121   1.403       .  A
C2121      C2122   1.395       .  A
C2121      F2128   1.355       .  S
C2122      C2123   1.401       .  A
C2122      H2127   1.084       .  S
C2123      C2124   1.405       .  A
C2124      F2125   1.357       .  S
C2129      C2130   1.413       .  A
C2129      C2134   1.423       .  A
C2129      H2136   1.083       .  S
C2130      C2131   1.410       .  A
C2131      C2132   1.412       .  A
C2131      F2138   1.352       .  S
C2132      C2133   1.408       .  A
C2132      H2137   1.083       .  S
C2133      C2134   1.419       .  A
C2134      F2135   1.355       .  S
C2139      C2140   1.409       .  A
C2139      C2144   1.409       .  A
C2139      H2146   1.081       .  S
C2140      C2141   1.419       .  A
C2141      C2142   1.432       .  A
C2141      F2148   1.356       .  S
C2142      C2143   1.418       .  A
C2142      H2147   1.083       .  S
C2143      C2144   1.414       .  A
C2144      F2145   1.353       .  S
C2149      C3046   1.415       .  A
C2149      C2154   1.426       .  A
C2149      H2156   1.083       .  S
C2150      C3045   1.415   1_545  A
C2150      C2151   1.411       .  A
C2151      C2152   1.408       .  A
C2151      F2158   1.355       .  S
C2152      C2153   1.410       .  A
C2152      H2157   1.083       .  S
C2153      C3050   1.420   1_545  A
C2154      C3049   1.420       .  A
C2154      F2155   1.355       .  S
C2159      C2160   1.409       .  A
C2159      C2164   1.410       .  A
C2159      H2166   1.083       .  S
C2160      C3057   1.419   1_545  A
C2161      C3056   1.419       .  A
C2161      C2162   1.429       .  A
C2161      F2168   1.356       .  S
C2162      C3059   1.416       .  A
C2162      H2167   1.083       .  S
C2163      C3058   1.416   1_545  A
C2163      C2164   1.414       .  A
C2164      F2165   1.357       .  S
C2169      C2170   1.401       .  A
C2169      C2174   1.394   1_556  A
C2169      H2176   1.084       .  S
C2170      C2171   1.408       .  A
C2171      C2172   1.402   1_556  A
C2171      F2178   1.352       .  S
C2172      C2173   1.399       .  A
C2172      H2177   1.083       .  S
C2173      C2174   1.402       .  A
C2174      F2175   1.354       .  S
C2179      C2180   1.402       .  A
C2179      C2184   1.400       .  A
C2179      H2186   1.083       .  S
C2180      C2181   1.405       .  A
C2181      C2182   1.396       .  A
C2181      F2188   1.358       .  S
C2182      C2183   1.401       .  A
C2182      H2187   1.084       .  S
C2183      C2184   1.407       .  A
C2184      F2185   1.356       .  S
C2189      C2190   1.405       .  A
C2189      C2194   1.402   1_554  A
C2189      H2196   1.083   1_545  S
C2190      C2191   1.408       .  A
C2191      C2192   1.405   1_554  A
C2191      F2198   1.353       .  S
C2192      C2193   1.402       .  A
C2192      H2197   1.084       .  S
C2193      C2194   1.401       .  A
C2194      F2195   1.354   1_545  S
C2199      C2200   1.401   1_565  A
C2199      C2204   1.394       .  A
C2199      H2206   1.075       .  S
C2200      C2201   1.411       .  A
C2201      C2202   1.409       .  A
C2201      F2208   1.357       .  S
C2202      C2203   1.408       .  A
C2202      H2207   1.082       .  S
C2203      C2204   1.405   1_545  A
C2204      F3101   1.358       .  S
F2205      C3100   1.358       .  S
C2209      C2210   1.402       .  A
C2209      C2214   1.386       .  A
C2209      H2216   1.083       .  S
C2210      C2211   1.403       .  A
C2211      C2212   1.393       .  A
C2211      F2218   1.356       .  S
C2212      C2213   1.400       .  A
C2212      H2217   1.084       .  S
C2213      C2214   1.399       .  A
C2214      F2215   1.357       .  S
C2219      C2220   1.401       .  A
C2219      C2224   1.390       .  A
C2219      H2226   1.084       .  S
C2220      C2221   1.403       .  A
C2221      C2222   1.388       .  A
C2221      F2228   1.357       .  S
C2222      C2223   1.398       .  A
C2222      H2227   1.079       .  S
C2223      C2224   1.404       .  A
C2224      F2225   1.357       .  S
C2229      C2230   1.402       .  A
C2229      C2234   1.392   1_554  A
C2229      H2236   1.084       .  S
C2230      C2231   1.404       .  A
C2231      C2232   1.399   1_554  A
C2231      F2238   1.357       .  S
C2232      C2233   1.404       .  A
C2232      H2237   1.084       .  S
C2233      C2234   1.400       .  A
C2234      F2235   1.358       .  S
C2239      C2240   1.404       .  A
C2239      C2244   1.399       .  A
C2240      C2241   1.402       .  A
C2241      C2242   1.394       .  A
C2241      F2248   1.358       .  S
C2242      C2243   1.402       .  A
C2242      H2247   1.084       .  S
C2243      C2244   1.403       .  A
C2249      C2250   1.401       .  A
C2249      C2254   1.393       .  A
C2249      H2256   1.082       .  S
C2250      C2251   1.400       .  A
C2251      C2252   1.388       .  A
C2251      F3154   1.358       .  S
C2252      C2253   1.402       .  A
C2252      H3153   1.084       .  S
C2253      C2254   1.400       .  A
C2254      F2255   1.358       .  S
H2257      C3148   1.084       .  S
F2258      C3147   1.358       .  S
C2259      C2260   1.403       .  A
C2259      C2264   1.392       .  A
C2259      H3162   1.084       .  S
C2260      C2261   1.402       .  A
C2261      C2262   1.395       .  A
C2261      F2268   1.357       .  S
C2262      C2263   1.401       .  A
C2262      H2267   1.084       .  S
C2263      C2264   1.401       .  A
C2264      F3161   1.358       .  S
F2265      C3160   1.358       .  S
H2266      C3155   1.084       .  S
C2269      C2270   1.406   1_565  A
C2269      C2274   1.393   1_556  A
C2270      C2271   1.413       .  A
C2271      C2272   1.400   1_556  A
C2271      F2278   1.357       .  S
C2272      C2273   1.400       .  A
C2272      H2277   1.084       .  S
C2273      C2274   1.401   1_545  A
C2279      C2280   1.404       .  A
C2279      C2284   1.399       .  A
C2280      C2281   1.402   1_545  A
C2281      C2282   1.391       .  A
C2281      F2288   1.350       .  S
C2282      C2283   1.398   1_565  A
C2282      H2287   1.083       .  S
C2283      C2284   1.406       .  A
C2289      C2290   1.406       .  A
C2289      C2294   1.394       .  A
C2289      H2296   1.081       .  S
C2290      C2291   1.412       .  A
C2291      C2292   1.400       .  A
C2291      F2298   1.357       .  S
C2292      C2293   1.401       .  A
C2292      H2297   1.084       .  S
C2293      C2294   1.399       .  A
C2294      F2295   1.357       .  S
C2299      C2300   1.399       .  A
C2299      C2304   1.386       .  A
C2299      H2306   1.075       .  S
C2300      C2301   1.406       .  A
C2301      C2302   1.397       .  A
C2301      F2308   1.358       .  S
C2302      C2303   1.405       .  A
C2302      H2307   1.084       .  S
C2303      C2304   1.399       .  A
C2304      F2305   1.355       .  S
C2309      C2310   1.394       .  A
C2309      C2314   1.383       .  A
C2309      H2316   1.072       .  S
C2310      C2311   1.404       .  A
C2311      C2312   1.393       .  A
C2311      F2318   1.357       .  S
C2312      C2313   1.403       .  A
C2312      H2317   1.083       .  S
C2313      C2314   1.399       .  A
C2314      F2315   1.350       .  S
C2319      C2320   1.404       .  A
C2319      C2324   1.393       .  A
C2319      H2326   1.084       .  S
C2320      C2321   1.402       .  A
C2321      C2322   1.401       .  A
C2321      F2328   1.356       .  S
C2322      C2323   1.406       .  A
C2322      H2327   1.083       .  S
C2323      C2324   1.400       .  A
C2324      F2325   1.358       .  S
C2329      C2330   1.410   1_655  A
C2329      C2334   1.404       .  A
C2329      H2336   1.083       .  S
C2331      C2332   1.396       .  A
C2331      F2338   1.358       .  S
C2332      H2337   1.084       .  S
C2333      C2334   1.402   1_455  A
C2334      F2335   1.358       .  S
C2339      C2340   1.403       .  A
C2339      C2344   1.392       .  A
C2339      H2346   1.083       .  S
C2341      C2342   1.392       .  A
C2341      F2348   1.355       .  S
C2342      H2347   1.084       .  S
C2343      C2344   1.402       .  A
C2344      F2345   1.358       .  S
C2349      C2350   1.400       .  A
C2349      C2354   1.391       .  A
C2349      H2356   1.084       .  S
C2351      C2352   1.391       .  A
C2351      F2358   1.357       .  S
C2352      H2357   1.084       .  S
C2353      C2354   1.403       .  A
C2354      F2355   1.358       .  S
C2359      C2360   1.400   1_655  A
C2359      C2364   1.394   1_655  A
C2359      H2366   1.082       .  S
C2361      C2362   1.396       .  A
C2361      F3264   1.357       .  S
C2362      H2367   1.083       .  S
C2363      C2364   1.403       .  A
C2364      F2365   1.357   1_455  S
F2368      C3257   1.357       .  S
C2369      C2370   1.407       .  A
C2369      C2374   1.393       .  A
C2369      H2376   1.083       .  S
C2370      C2371   1.409       .  A
C2371      C2372   1.397       .  A
C2371      F2378   1.355       .  S
C2372      C2373   1.405       .  A
C2372      H2377   1.083       .  S
C2373      C2374   1.405       .  A
C2374      F2375   1.355       .  S
C2379      C2380   1.398       .  A
C2379      C2384   1.394       .  A
C2379      H2386   1.083       .  S
C2380      C2381   1.408       .  A
C2381      C2382   1.402       .  A
C2381      F2388   1.356       .  S
C2382      C2383   1.401       .  A
C2382      H2387   1.082       .  S
C2383      C2384   1.408       .  A
C2384      F2385   1.358       .  S
C2389      C2390   1.414       .  A
C2389      C2394   1.413       .  A
C2389      H2396   1.082       .  S
C2390      C2391   1.410       .  A
C2391      C2392   1.421       .  A
C2391      F2398   1.354       .  S
C2392      C2393   1.415       .  A
C2392      H2397   1.083       .  S
C2393      C2709   1.540       .  S
C2393      C2394   1.413       .  A
C2394      F2395   1.356       .  S
C2399      C2400   1.421       .  A
C2399      C2404   1.423       .  A
C2399      H2406   1.083       .  S
C2400      C2401   1.413       .  A
C2401      C2402   1.420       .  A
C2401      F2408   1.353       .  S
C2402      C2403   1.416       .  A
C2402      H2407   1.080       .  S
C2403      C2404   1.413       .  A
C2404      F2405   1.357       .  S
C2409      C2410   1.408       .  A
C2409      C2414   1.406       .  A
C2409      H2416   1.083       .  S
C2410      C3307   1.406   1_545  A
C2411      C3306   1.406       .  A
C2411      C3308   1.388       .  A
C2411      F2418   1.357       .  S
C2412      C3307   1.388       .  A
C2412      C2413   1.403   1_565  A
C2412      H3313   1.083       .  S
C2413      C2414   1.411       .  A
C2414      F2415   1.356       .  S
H2417      C3308   1.083       .  S
C2419      C2420   1.405       .  A
C2419      C2424   1.400   1_565  A
C2419      H2426   1.082       .  S
C2420      C2421   1.408       .  A
C2421      C2422   1.394   1_565  A
C2421      F2428   1.358       .  S
C2422      C2423   1.399       .  A
C2422      H2427   1.083       .  S
C2423      C2424   1.401       .  A
C2424      F2425   1.354       .  S
C2429      C2430   1.403       .  A
C2429      C2434   1.385       .  A
C2430      C2431   1.413       .  A
C2431      C2432   1.407       .  A
C2431      F2438   1.356       .  S
C2432      C2433   1.408       .  A
C2432      H2437   1.083       .  S
C2433      C2434   1.406       .  A
C2439      C2440   1.407       .  A
C2439      C2444   1.409       .  A
C2439      H2446   1.081       .  S
C2440      C2441   1.409       .  A
C2441      C2442   1.394       .  A
C2441      F2448   1.357       .  S
C2442      C2443   1.404       .  A
C2443      C2444   1.412       .  A
C2444      F2445   1.357       .  S
C2449      C2450   1.406       .  A
C2449      C2454   1.416       .  A
C2449      H2456   1.083       .  S
C2451      C2452   1.415       .  A
C2451      F2458   1.357   1_455  S
C2452      H2457   1.082   1_455  S
C2453      C2454   1.423       .  A
C2454      F2455   1.356       .  S
C2459      C2460   1.417       .  A
C2459      C2464   1.417       .  A
C2459      H2466   1.083       .  S
C2460      C2706   1.540       .  S
C2460      C2461   1.412       .  A
C2461      C2462   1.419       .  A
C2462      C2463   1.416       .  A
C2463      C2464   1.412       .  A
C2464      F2465   1.357       .  S
C2469      C2470   1.408       .  A
C2469      C2474   1.394       .  A
C2469      H2476   1.084       .  S
C2470      C2706   1.495       .  S
C2471      C3368   1.397   1_455  A
C2471      F2478   1.356   1_455  S
C2472      C3367   1.397   1_655  A
C2472      H3373   1.084       .  S
C2473      C2474   1.407       .  A
C2474      F2475   1.356       .  S
H2477      C3368   1.084       .  S
C2479      C2484   1.400       .  A
C2479      H2486   1.083   1_455  S
C2480      C2481   1.406       .  A
C2481      C2482   1.384       .  A
C2481      F2488   1.357       .  S
C2482      C2483   1.401       .  A
C2482      H2487   1.083       .  S
C2484      F2485   1.352   1_455  S
C2489      C2490   1.410       .  A
C2489      C2494   1.410       .  A
C2489      H2496   1.083       .  S
C2490      C2491   1.409       .  A
C2491      C2492   1.402       .  A
C2491      F2498   1.356       .  S
C2492      C2493   1.406       .  A
C2492      H2497   1.084       .  S
C2493      C2494   1.408       .  A
C2494      F2495   1.357       .  S
C2499      C2500   1.401       .  A
C2499      C2504   1.395       .  A
C2499      H2506   1.083   1_545  S
C2500      C2501   1.405       .  A
C2501      C2502   1.395       .  A
C2501      F2508   1.356       .  S
C2502      C2503   1.401       .  A
C2502      H2507   1.083       .  S
C2503      C2504   1.407       .  A
C2504      F3401   1.358   1_545  S
F2505      C3400   1.358       .  S
C2509      C2510   1.420       .  A
C2509      C2514   1.422       .  A
C2509      H2516   1.083       .  S
C2510      C2511   1.412       .  A
C2511      C2512   1.416       .  A
C2511      F2518   1.356       .  S
C2512      C2513   1.417       .  A
C2512      H2517   1.083       .  S
C2513      C2514   1.411       .  A
C2514      F2515   1.357       .  S
C2519      C2520   1.410       .  A
C2519      C2524   1.420       .  A
C2519      H2526   1.082       .  S
C2520      C2521   1.421       .  A
C2521      C2522   1.423       .  A
C2521      F2528   1.357       .  S
C2522      C2523   1.413       .  A
C2522      H2527   1.083       .  S
C2523      C2524   1.420       .  A
C2524      F2525   1.357       .  S
C2529      C2530   1.401       .  A
C2529      C2534   1.393       .  A
C2530      C2531   1.407       .  A
C2531      C2532   1.404       .  A
C2531      F2538   1.357       .  S
C2532      C2533   1.406       .  A
C2532      H2537   1.083       .  S
C2533      C2534   1.405       .  A
C2539      C2540   1.411   1_565  A
C2539      C2544   1.417       .  A
C2539      H3442   1.083       .  S
C2540      C2541   1.417       .  A
C2541      C2542   1.422       .  A
C2541      F2548   1.357       .  S
C2542      C2543   1.412       .  A
C2542      H2547   1.082       .  S
C2543      C2544   1.415   1_545  A
C2544      F3441   1.357       .  S
F2545      C3440   1.357       .  S
H2546      C3435   1.083       .  S
C2549      C2550   1.419       .  A
C2549      C2554   1.419       .  A
C2549      H2556   1.079       .  S
C2550      C2551   1.414   1_545  A
C2551      C2552   1.420       .  A
C2551      F3454   1.357       .  S
C2552      C2553   1.414   1_565  A
C2552      H3453   1.083       .  S
C2553      C2554   1.410       .  A
C2554      F2555   1.357       .  S
H2557      C3448   1.083       .  S
F2558      C3447   1.357       .  S
C2559      C2560   1.404   1_565  A
C2559      C2564   1.394       .  A
C2560      C2561   1.403       .  A
C2561      C2562   1.389       .  A
C2561      F2568   1.357       .  S
C2562      C2563   1.400       .  A
C2562      H2567   1.082       .  S
C2563      C2564   1.402   1_545  A
C2569      C2570   1.413       .  A
C2569      C2574   1.411       .  A
C2569      H2576   1.083       .  S
C2570      C2571   1.411       .  A
C2571      C2572   1.411       .  A
C2571      F2578   1.353       .  S
C2572      C2573   1.413       .  A
C2572      H2577   1.083       .  S
C2573      C2574   1.411       .  A
C2574      F2575   1.356       .  S
C2579      C2580   1.408       .  A
C2579      C2584   1.409       .  A
C2579      H2586   1.083       .  S
C2580      C2581   1.407       .  A
C2581      C2582   1.398       .  A
C2581      F2588   1.358       .  S
C2582      C2583   1.406       .  A
C2582      H2587   1.082       .  S
C2583      C2584   1.412       .  A
C2584      F2585   1.356       .  S
C2589      C2590   1.415       .  A
C2589      C2594   1.418       .  A
C2589      H2596   1.083       .  S
C2590      C2693   1.542       .  S
C2590      C2591   1.413       .  A
C2591      C2592   1.423       .  A
C2591      F2598   1.357       .  S
C2592      C2593   1.418       .  A
C2592      H2597   1.083       .  S
C2593      C2594   1.415       .  A
C2594      F2595   1.356       .  S
C2599      C2600   1.419       .  A
C2599      C2604   1.422       .  A
C2599      H2606   1.083       .  S
C2600      C2601   1.410       .  A
C2601      C2602   1.420       .  A
C2601      F2608   1.357       .  S
C2602      C2603   1.422       .  A
C2602      H2607   1.083       .  S
C2603      C2604   1.413       .  A
C2604      F2605   1.355       .  S
C2609      C2610   1.406       .  A
C2609      C2614   1.396       .  A
C2609      H2616   1.084       .  S
C2610      C2611   1.409       .  A
C2611      C2612   1.402       .  A
C2611      F2618   1.355   1_545  S
C2612      C2613   1.411       .  A
C2612      H2617   1.077   1_545  S
C2613      C2614   1.407       .  A
C2614      F2615   1.351       .  S
C2619      C2620   1.410   1_565  A
C2619      C2624   1.407       .  A
C2619      H3522   1.083       .  S
C2620      C2621   1.407       .  A
C2621      C2622   1.406       .  A
C2621      F2628   1.357       .  S
C2622      C2623   1.412       .  A
C2622      H2627   1.083       .  S
C2623      C2624   1.408   1_545  A
C2624      F3521   1.355       .  S
F2625      C3520   1.355       .  S
H2626      C3515   1.083       .  S
C2629      C2630   1.410       .  A
C2629      C2634   1.397       .  A
C2629      H2636   1.078       .  S
C2630      C2631   1.420       .  A
C2632      H2637   1.080       .  S
C2633      C2634   1.402       .  A
C2634      F2635   1.352       .  S
C2639      C2640   1.398       .  A
C2639      C2644   1.389       .  A
C2639      H2646   1.084       .  S
C2641      C2642   1.389       .  A
C2641      F2648   1.358   1_455  S
C2642      C2643   1.400       .  A
C2642      H2647   1.084   1_455  S
C2644      F2645   1.356       .  S
C2649      C2650   1.416       .  A
C2649      C2654   1.421       .  A
C2649      H2656   1.083       .  S
C2651      C2652   1.416       .  A
C2651      F2658   1.357   1_455  S
C2652      H2657   1.076   1_455  S
C2653      C2654   1.413       .  A
C2654      F2655   1.357       .  S
C2659      C2664   1.421       .  A
C2659      H2666   1.083   1_455  S
C2660      C2661   1.414       .  A
C2661      C2662   1.417       .  A
C2661      F2668   1.353       .  S
C2662      C2663   1.411       .  A
C2662      H2667   1.083       .  S
C2664      F2665   1.357   1_455  S
C2669      C2674   1.379       .  A
C2669      H2676   1.079       .  S
C2670      C2671   1.405   1_545  A
C2671      C2672   1.393   1_565  A
C2671      F2678   1.355       .  S
C2672      C2673   1.405       .  A
C2672      H2677   1.082   1_545  S
C2674      F2675   1.354       .  S
C2679      C2684   1.394       .  A
C2679      H2686   1.083       .  S
C2680      C2681   1.402       .  A
C2681      C2682   1.386       .  A
C2681      F2688   1.359   1_455  S
C2682      C2683   1.400       .  A
C2682      H2687   1.083   1_455  S
C2684      F2685   1.356       .  S
C2689      C3579   1.461       .  S
C2690      C3559   1.536       .  S
C2690      C3569   1.480       .  S
C2691      C3536   1.463       .  S
C2691      C3556   1.537       .  S
C2691      C2692   1.383       .  D
C2692      C3529   1.479       .  S
C2692      C3549   1.549       .  S
C2693      C3516   1.505       .  S
C2693      C2694   1.403       .  D
C2694      C3499   1.549       .  S
C2694      C3506   1.505       .  S
C2695      C3476   1.503       .  S
C2695      C3496   1.541       .  S
C2695      C2696   1.405       .  D
C2696      C3466   1.525       .  S
C2696      C3489   1.547       .  S
C2697      C3449   1.538       .  S
C2697      C3459   1.466       .  S
C2697      C2698   1.381       .  D
C2698      C3566   1.475       .  S
C2699      C3526   1.510       .  S
C2699      C2700   1.401       .  D
C2700      C3419   1.546       .  S
C2700      C3426   1.484       .  S
C2701      C3439   1.542       .  S
C2701      C3509   1.505       .  S
C2701      C2702   1.392       .  D
C2702      C3396   1.476       .  S
C2702      C3446   1.539       .  S
C2703      C3416   1.545       .  S
C2703      C3469   1.523       .  S
C2703      C2704   1.403       .  D
C2704      C3389   1.501       .  S
C2704      C3409   1.535       .  S
C2705      C3346   1.538   1_545  S
C2705      C3376   1.484       .  S
C2705      C2706   1.393       .  D
C2707      C3336   1.499       .  S
C2707      C3359   1.537       .  S
C2707      C2708   1.394       .  D
C2708      C3329   1.494       .  S
C2708      C3349   1.538       .  S
C2709      C3309   1.492       .  S
C2709      C2710   1.390       .  D
C2710      C3299   1.542       .  S
C2710      C3319   1.479       .  S
C2711      C3269   1.490       .  S
C2711      C3296   1.546       .  S
C2711      C2712   1.394       .  D
C2712      C3276   1.478       .  S
C2712      C3286   1.534       .  S
O2713     Cu2721   2.024       .  S
O2713      C2723   1.278       .  A
O2714     Cu2721   2.009       .  S
O2714      C2724   1.278       .  A
O2715      C2725   1.277       .  A
O2716     Cu2721   1.991   1_655  S
O2716      C2726   1.269   1_545  A
O2717     Cu2722   1.982       .  S
O2719     Cu2722   1.989       .  S
O2720     Cu2722   1.970       .  S
C2724      C3256   1.463       .  S
C2725      C3246   1.453       .  S
C2726      C3239   1.448       .  S
O2727     Cu2735   2.004       .  S
O2728     Cu2735   2.002       .  S
O2728      C2738   1.276   1_655  A
O2729     Cu2735   1.994       .  S
O2730     Cu2735   1.988   1_455  S
O2731     Cu2736   1.979       .  S
O2731      C2740   1.263       .  A
O2732     Cu2736   1.981       .  S
O2732      C2739   1.277       .  A
O2733     Cu2736   2.025       .  S
O2734     Cu2736   2.038       .  S
O2734      C2737   1.280       .  A
C2737      C3339   1.490       .  S
C2738      C3226   1.481       .  S
O2741     Cu2749   2.013       .  S
O2741      C2751   1.280       .  A
O2742     Cu2749   2.010       .  S
O2742      C2752   1.276       .  A
O2743     Cu2749   1.985       .  S
O2744     Cu2749   1.977       .  S
O2744      C2754   1.269       .  A
O2745     Cu2750   1.984       .  S
O2745      C2754   1.278       .  A
O2746     Cu2750   1.972       .  S
O2747     Cu2750   1.989       .  S
O2747      C2752   1.274       .  A
O2748     Cu2750   1.978       .  S
O2748      C2751   1.272       .  A
Cu2749    Cu2750   2.370       .  S
C2751      C3316   1.467       .  S
C2752      C3216   1.464       .  S
C2753      C3199   1.446       .  S
C2754      C3206   1.449       .  S
O2755     Cu2763   2.013       .  S
O2755      C2765   1.278       .  A
O2756     Cu2763   2.008       .  S
O2756      C2766   1.277       .  A
O2757     Cu2763   1.994       .  S
O2757      C2767   1.268       .  A
O2758     Cu2763   1.985       .  S
O2758      C2768   1.279       .  A
O2759     Cu2764   1.979       .  S
O2759      C2768   1.266       .  A
O2760     Cu2764   1.980       .  S
O2760      C2767   1.279       .  A
O2761     Cu2764   1.994       .  S
O2761      C2766   1.277       .  A
O2762     Cu2764   1.993       .  S
O2762      C2765   1.277       .  A
Cu2763    Cu2764   2.372       .  S
C2765      C3279   1.469       .  S
C2766      C3186   1.479       .  S
C2767      C3196   1.465       .  S
C2768      C3209   1.452       .  S
O2769     Cu2777   2.000       .  S
O2769      C2779   1.275       .  A
O2770     Cu2777   2.001       .  S
O2770      C2780   1.276       .  A
O2771      C2781   1.278       .  A
O2772     Cu2777   1.985       .  S
O2772      C2782   1.269       .  A
O2773     Cu2778   1.976       .  S
O2773      C2782   1.273       .  A
O2774      C2781   1.265   1_455  A
O2775     Cu2778   2.007       .  S
O2775      C2780   1.276       .  A
O2776     Cu2778   2.008       .  S
O2776      C2779   1.278       .  A
Cu2777    Cu2778   2.371       .  S
C2779      C3176   1.472       .  S
C2780      C3169   1.464       .  S
C2781      C3146   1.454       .  S
C2782      C3156   1.449       .  S
O2783     Cu2791   2.000       .  S
O2783      C2793   1.276       .  A
O2784     Cu2791   2.005       .  S
O2784      C2794   1.276       .  A
O2785      C2795   1.277       .  A
O2786     Cu2791   1.971       .  S
O2786      C2796   1.266       .  A
O2787     Cu2792   1.974       .  S
O2787      C2796   1.275       .  A
O2788      C2795   1.262   1_455  A
O2789     Cu2792   1.990       .  S
O2789      C2794   1.275       .  A
O2790     Cu2792   2.002       .  S
O2790      C2793   1.276       .  A
Cu2791    Cu2792   2.375       .  S
C2793      C3139   1.463       .  S
C2794      C3126   1.461       .  S
C2795      C3109   1.453       .  S
C2796      C3116   1.440       .  S
O2797     Cu2805   2.019       .  S
O2797      C2807   1.279       .  A
O2798     Cu2805   2.022       .  S
O2798      C2808   1.281       .  A
O2799     Cu2805   1.974       .  S
O2799      C2809   1.277       .  A
O2800     Cu2805   1.976       .  S
O2800      C2810   1.266       .  A
O2801     Cu2806   1.986       .  S
O2801      C2810   1.277       .  A
O2802     Cu2806   1.984       .  S
O2802      C2809   1.265       .  A
O2803     Cu2806   2.025       .  S
O2803      C2808   1.278       .  A
O2804     Cu2806   2.028       .  S
O2804      C2807   1.280       .  A
Cu2805    Cu2806   2.370       .  S
C2807      C3086   1.485       .  S
C2808      C3096   1.490       .  S
C2809      C3159   1.458       .  S
C2810      C3149   1.445       .  S
O2811     Cu2819   1.998       .  S
O2811      C2821   1.275       .  A
O2812     Cu2819   1.998       .  S
O2812      C2822   1.276       .  A
O2813     Cu2819   1.974       .  S
O2813      C2823   1.279       .  A
O2814     Cu2819   1.970       .  S
O2814      C2824   1.266       .  A
O2815     Cu2820   1.986       .  S
O2815      C2824   1.276       .  A
O2816     Cu2820   1.986       .  S
O2816      C2823   1.265       .  A
O2817     Cu2820   2.013       .  S
O2817      C2822   1.278       .  A
O2818     Cu2820   2.013       .  S
O2818      C2821   1.276       .  A
Cu2819    Cu2820   2.374       .  S
C2821      C3069   1.464       .  S
C2822      C3076   1.466       .  S
C2823      C3119   1.457       .  S
C2824      C3106   1.447       .  S
C2825      C3369   1.494       .  S
C2825      C2826   1.386       .  D
C2826      C3059   1.539       .  S
C2826      C3179   1.477       .  S
C2827      C3326   1.493       .  S
C2827      C2828   1.385       .  D
C2828      C3036   1.539       .  S
C2828      C3136   1.479       .  S
C2829      C3046   1.537       .  S
C2829      C3306   1.494       .  S
C2829      C2830   1.388       .  D
C2830      C3056   1.541       .  S
C2830      C3099   1.496       .  S
C2831      C3039   1.543       .  S
C2831      C3079   1.481       .  S
C2831      C2832   1.385       .  D
C2832      C3026   1.539       .  S
C2832      C3266   1.494       .  S
O2833     Cu2841   1.992       .  S
O2833      C2843   1.275       .  A
O2834     Cu2841   2.004       .  S
O2834      C2844   1.278       .  A
O2835      C2845   1.274       .  A
O2836     Cu2841   1.981       .  S
O2836      C2846   1.264       .  A
O2837     Cu2842   1.957       .  S
O2837      C2846   1.275       .  A
O2838      C2845   1.263   1_455  A
O2839     Cu2842   2.002       .  S
O2839      C2844   1.276       .  A
O2840     Cu2842   1.988       .  S
O2840      C2843   1.276       .  A
Cu2841    Cu2842   2.370       .  S
C2843      C3456   1.461       .  S
C2844      C3166   1.481       .  S
C2845      C3009   1.439       .  S
C2846      C3016   1.461       .  S
O2847     Cu2855   2.024       .  S
O2847      C2857   1.278       .  A
O2848     Cu2855   2.007       .  S
O2848      C2858   1.278       .  A
O2849      C2859   1.274       .  A
O2850     Cu2855   1.967       .  S
O2850      C2860   1.262       .  A
O2851     Cu2856   1.972       .  S
O2851      C2860   1.277       .  A
O2852      C2859   1.266   1_455  A
O2853     Cu2856   1.990       .  S
O2853      C2858   1.274       .  A
O2854     Cu2856   1.998       .  S
O2854      C2857   1.277       .  A
Cu2855    Cu2856   2.373       .  S
C2857      C3429   1.476       .  S
C2858      C3129   1.459       .  S
C2859      C2989   1.444       .  S
C2860      C2999   1.461       .  S
O2861     Cu2869   2.006       .  S
O2861      C2871   1.278       .  A
O2862     Cu2869   2.023       .  S
O2862      C2872   1.278       .  A
O2863     Cu2869   1.967       .  S
O2863      C2873   1.262       .  A
O2864     Cu2869   1.979       .  S
O2864      C2874   1.273       .  A
O2865     Cu2870   1.967       .  S
O2865      C2874   1.267       .  A
O2866     Cu2870   1.974       .  S
O2866      C2873   1.277       .  A
O2867     Cu2870   2.019       .  S
O2867      C2872   1.278       .  A
O2868     Cu2870   1.989       .  S
O2868      C2871   1.275       .  A
Cu2869    Cu2870   2.371       .  S
C2871      C3399   1.465       .  S
C2872      C3089   1.476       .  S
C2873      C3006   1.459       .  S
C2874      C3019   1.444       .  S
O2875     Cu2883   2.037       .  S
O2875      C2885   1.282       .  A
O2876     Cu2883   2.013       .  S
O2876      C2886   1.279       .  A
O2877     Cu2883   1.939       .  S
O2877      C2887   1.261       .  A
O2878     Cu2883   1.967       .  S
O2878      C2888   1.274       .  A
O2879     Cu2884   1.987       .  S
O2879      C2888   1.264       .  A
O2880     Cu2884   1.983       .  S
O2880      C2887   1.275       .  A
O2881     Cu2884   2.005       .  S
O2881      C2886   1.276       .  A
O2882     Cu2884   2.032       .  S
O2882      C2885   1.279       .  A
Cu2883    Cu2884   2.366       .  S
C2885      C3386   1.496       .  S
C2886      C3066   1.473       .  S
C2887      C2996   1.439       .  S
C2888      C2986   1.456       .  S
O2889     Cu2897   1.978       .  S
O2890     Cu2897   2.000       .  S
O2892     Cu2897   1.971   1_565  S
O2893     Cu2898   1.970       .  S
O2893      C2902   1.276       .  A
O2894      C2901   1.262       .  A
O2895     Cu2898   1.996       .  S
O2895      C2900   1.275       .  A
O2896     Cu2898   1.984       .  S
O2896      C2899   1.276   1_565  A
C2899      C3576   1.455       .  S
C2900      C3259   1.459       .  S
C2901      C2976   1.436       .  S
C2902      C2966   1.462       .  S
O2903     Cu2911   1.984       .  S
O2904     Cu2911   2.008       .  S
O2905     Cu2911   1.959       .  S
O2906     Cu2911   1.974       .  S
O2907     Cu2912   1.980       .  S
O2907      C2916   1.264       .  A
O2908     Cu2912   1.971   1_455  S
O2908      C2915   1.272       .  A
O2909     Cu2912   2.018       .  S
O2909      C2914   1.275   1_655  A
O2910     Cu2912   1.977   1_455  S
O2910      C2913   1.274       .  A
C2913      C3539   1.454       .  S
C2914      C3229   1.467       .  S
C2915      C2969   1.437       .  S
C2916      C2979   1.460       .  S
O2917     Cu2925   2.070       .  S
O2917      C2927   1.287       .  A
O2918     Cu2925   2.020       .  S
O2918      C2928   1.281       .  A
O2919      C2929   1.270       .  A
O2920     Cu2925   1.942       .  S
O2920      C2930   1.258       .  A
O2921     Cu2926   1.996       .  S
O2921      C2930   1.281       .  A
O2922      C2929   1.268   1_545  A
O2923     Cu2926   1.989       .  S
O2923      C2928   1.273       .  A
O2924     Cu2926   2.002       .  S
O2924      C2927   1.275       .  A
Cu2925    Cu2926   2.369       .  S
C2927      C3519   1.501       .  S
C2928      C3219   1.465       .  S
C2929      C2946   1.442       .  S
C2930      C2959   1.459       .  S
O2931     Cu2939   2.045       .  S
O2931      C2941   1.281       .  A
O2932     Cu2939   2.029       .  S
O2932      C2942   1.281       .  A
O2933     Cu2939   1.958       .  S
O2933      C2943   1.264       .  A
O2934     Cu2939   1.966       .  S
O2934      C2944   1.274       .  A
O2935     Cu2940   1.983       .  S
O2935      C2944   1.265       .  A
O2936     Cu2940   1.967       .  S
O2936      C2943   1.273       .  A
O2937     Cu2940   1.985       .  S
O2937      C2942   1.270       .  A
O2938     Cu2940   2.012       .  S
O2938      C2941   1.277       .  A
Cu2939    Cu2940   2.349       .  S
C2941      C3479   1.496       .  S
C2942      C3189   1.462       .  S
C2943      C2956   1.435       .  S
C2944      C2949   1.453       .  S
C2945      C2946   1.402       .  A
C2945      C2950   1.388       .  A
C2945      H2952   1.084       .  S
C2946      C2947   1.402       .  A
C2947      C2948   1.392       .  A
C2947      F2954   1.358       .  S
C2948      C2949   1.400       .  A
C2948      H2953   1.083       .  S
C2949      C2950   1.400       .  A
C2950      F2951   1.357       .  S
C2955      C2956   1.404       .  A
C2955      C2960   1.392       .  A
C2955      H2962   1.084       .  S
C2956      C2957   1.401       .  A
C2957      C2958   1.392       .  A
C2957      F2964   1.356       .  S
C2958      C2959   1.401       .  A
C2958      H2963   1.083       .  S
C2959      C2960   1.399       .  A
C2960      F2961   1.357       .  S
C2965      C2970   1.393       .  A
C2965      H2972   1.080       .  S
C2966      C2967   1.404       .  A
C2967      C2968   1.397       .  A
C2967      F2974   1.357       .  S
C2968      C2969   1.401       .  A
C2968      H2973   1.083       .  S
C2970      F2971   1.358       .  S
C2975      C2980   1.393       .  A
C2975      H2982   1.084       .  S
C2976      C2977   1.401       .  A
C2977      C2978   1.390       .  A
C2977      F2984   1.358       .  S
C2978      C2979   1.403       .  A
C2978      H2983   1.081       .  S
C2980      F2981   1.355       .  S
C2985      C2986   1.398       .  A
C2985      C2990   1.390       .  A
C2985      H2992   1.084       .  S
C2986      C2987   1.402       .  A
C2987      C2988   1.392       .  A
C2987      F2994   1.356       .  S
C2988      C2989   1.399       .  A
C2988      H2993   1.084       .  S
C2989      C2990   1.405       .  A
C2990      F2991   1.358       .  S
C2995      C2996   1.402       .  A
C2995      C3000   1.392       .  A
C2995      H3002   1.084       .  S
C2996      C2997   1.402       .  A
C2997      C2998   1.395       .  A
C2997      F3004   1.358       .  S
C2998      C2999   1.402       .  A
C2998      H3003   1.083       .  S
C2999      C3000   1.399       .  A
C3000      F3001   1.356       .  S
C3005      C3006   1.404       .  A
C3005      C3010   1.395       .  A
C3006      C3007   1.398       .  A
C3007      C3008   1.390       .  A
C3007      F3014   1.355       .  S
C3008      C3009   1.402       .  A
C3008      H3013   1.084       .  S
C3009      C3010   1.400       .  A
C3015      C3016   1.401       .  A
C3015      C3020   1.395       .  A
C3015      H3022   1.083       .  S
C3016      C3017   1.403       .  A
C3017      C3018   1.395       .  A
C3017      F3024   1.355       .  S
C3018      C3019   1.401       .  A
C3018      H3023   1.084       .  S
C3019      C3020   1.405       .  A
C3020      F3021   1.357       .  S
C3025      C3026   1.413       .  A
C3025      C3030   1.423       .  A
C3025      H3032   1.083       .  S
C3026      C3027   1.410       .  A
C3027      C3028   1.412       .  A
C3027      F3034   1.352       .  S
C3028      C3029   1.408       .  A
C3028      H3033   1.084       .  S
C3029      C3030   1.419       .  A
C3030      F3031   1.355       .  S
C3035      C3036   1.409       .  A
C3035      C3040   1.409       .  A
C3035      H3042   1.081       .  S
C3036      C3037   1.419       .  A
C3037      C3038   1.432       .  A
C3037      F3044   1.356       .  S
C3038      C3039   1.418       .  A
C3038      H3043   1.083       .  S
C3039      C3040   1.414       .  A
C3040      F3041   1.353       .  S
C3045      C3050   1.426       .  A
C3045      H3052   1.083       .  S
C3046      C3047   1.411       .  A
C3047      C3048   1.408       .  A
C3047      F3054   1.355       .  S
C3048      C3049   1.410       .  A
C3048      H3053   1.083       .  S
C3050      F3051   1.355       .  S
C3055      C3056   1.409       .  A
C3055      C3060   1.410       .  A
C3055      H3062   1.083       .  S
C3057      C3058   1.429       .  A
C3057      F3064   1.356       .  S
C3058      H3063   1.083       .  S
C3059      C3060   1.414       .  A
C3060      F3061   1.357       .  S
C3065      C3066   1.401       .  A
C3065      C3070   1.394   1_556  A
C3065      H3072   1.084       .  S
C3066      C3067   1.408       .  A
C3067      C3068   1.402   1_556  A
C3067      F3074   1.352       .  S
C3068      C3069   1.399       .  A
C3068      H3073   1.083       .  S
C3069      C3070   1.402       .  A
C3070      F3071   1.355       .  S
C3075      C3076   1.402       .  A
C3075      C3080   1.400       .  A
C3075      H3082   1.083       .  S
C3076      C3077   1.405       .  A
C3077      C3078   1.396       .  A
C3077      F3084   1.358       .  S
C3078      C3079   1.401       .  A
C3078      H3083   1.084       .  S
C3079      C3080   1.407       .  A
C3080      F3081   1.356       .  S
C3085      C3086   1.405       .  A
C3085      C3090   1.402   1_554  A
C3085      H3092   1.083       .  S
C3086      C3087   1.408       .  A
C3087      C3088   1.405   1_554  A
C3087      F3094   1.353       .  S
C3088      C3089   1.402       .  A
C3088      H3093   1.084       .  S
C3089      C3090   1.401       .  A
C3090      F3091   1.354       .  S
C3095      C3096   1.401       .  A
C3095      C3100   1.394       .  A
C3095      H3102   1.075       .  S
C3096      C3097   1.411       .  A
C3097      C3098   1.409       .  A
C3097      F3104   1.357       .  S
C3098      C3099   1.408       .  A
C3098      H3103   1.082       .  S
C3099      C3100   1.405       .  A
C3105      C3106   1.402       .  A
C3105      C3110   1.387       .  A
C3105      H3112   1.083       .  S
C3106      C3107   1.403       .  A
C3107      C3108   1.393       .  A
C3107      F3114   1.356       .  S
C3108      C3109   1.400       .  A
C3108      H3113   1.084       .  S
C3109      C3110   1.399       .  A
C3110      F3111   1.357       .  S
C3115      C3116   1.401       .  A
C3115      C3120   1.390       .  A
C3115      H3122   1.084       .  S
C3116      C3117   1.403       .  A
C3117      C3118   1.388       .  A
C3117      F3124   1.357       .  S
C3118      C3119   1.398       .  A
C3118      H3123   1.079       .  S
C3119      C3120   1.404       .  A
C3120      F3121   1.357       .  S
C3125      C3126   1.402       .  A
C3125      C3130   1.392   1_554  A
C3125      H3132   1.084       .  S
C3126      C3127   1.404       .  A
C3127      C3128   1.399   1_554  A
C3127      F3134   1.357       .  S
C3128      C3129   1.404       .  A
C3128      H3133   1.084       .  S
C3129      C3130   1.400       .  A
C3130      F3131   1.358       .  S
C3135      C3136   1.404       .  A
C3135      C3140   1.399       .  A
C3136      C3137   1.402       .  A
C3137      C3138   1.394       .  A
C3137      F3144   1.358       .  S
C3138      C3139   1.402       .  A
C3138      H3143   1.084       .  S
C3139      C3140   1.403       .  A
C3145      C3146   1.401       .  A
C3145      C3150   1.393       .  A
C3145      H3152   1.082       .  S
C3146      C3147   1.400       .  A
C3147      C3148   1.388       .  A
C3148      C3149   1.402       .  A
C3149      C3150   1.400       .  A
C3150      F3151   1.358       .  S
C3155      C3156   1.403       .  A
C3155      C3160   1.392       .  A
C3156      C3157   1.402       .  A
C3157      C3158   1.395       .  A
C3157      F3164   1.357       .  S
C3158      C3159   1.401       .  A
C3158      H3163   1.084       .  S
C3159      C3160   1.401       .  A
C3165      C3166   1.406       .  A
C3165      C3170   1.393   1_556  A
C3166      C3167   1.413       .  A
C3167      C3168   1.400   1_556  A
C3167      F3174   1.357       .  S
C3168      C3169   1.400       .  A
C3168      H3173   1.084       .  S
C3169      C3170   1.401       .  A
C3175      C3176   1.404       .  A
C3175      C3180   1.399       .  A
C3176      C3177   1.402       .  A
C3177      C3178   1.391       .  A
C3177      F3184   1.350       .  S
C3178      C3179   1.398       .  A
C3178      H3183   1.083       .  S
C3179      C3180   1.406       .  A
C3185      C3186   1.406       .  A
C3185      C3190   1.394       .  A
C3185      H3192   1.081       .  S
C3186      C3187   1.412       .  A
C3187      C3188   1.400       .  A
C3187      F3194   1.357       .  S
C3188      C3189   1.401       .  A
C3188      H3193   1.084       .  S
C3189      C3190   1.399       .  A
C3190      F3191   1.357       .  S
C3195      C3196   1.399       .  A
C3195      C3200   1.386       .  A
C3195      H3202   1.075       .  S
C3196      C3197   1.405       .  A
C3197      C3198   1.397       .  A
C3197      F3204   1.358       .  S
C3198      C3199   1.404       .  A
C3198      H3203   1.084       .  S
C3199      C3200   1.399       .  A
C3200      F3201   1.355       .  S
C3205      C3206   1.394       .  A
C3205      C3210   1.383       .  A
C3205      H3212   1.071       .  S
C3206      C3207   1.404       .  A
C3207      C3208   1.393       .  A
C3207      F3214   1.357       .  S
C3208      C3209   1.404       .  A
C3208      H3213   1.083       .  S
C3209      C3210   1.399       .  A
C3210      F3211   1.350       .  S
C3215      C3216   1.404       .  A
C3215      C3220   1.393       .  A
C3215      H3222   1.084       .  S
C3216      C3217   1.402       .  A
C3217      C3218   1.401       .  A
C3217      F3224   1.356       .  S
C3218      C3219   1.406       .  A
C3218      H3223   1.083       .  S
C3219      C3220   1.400       .  A
C3220      F3221   1.358       .  S
C3225      C3226   1.410   1_655  A
C3225      C3230   1.404       .  A
C3225      H3232   1.083       .  S
C3227      C3228   1.396       .  A
C3227      F3234   1.358       .  S
C3228      H3233   1.084       .  S
C3229      C3230   1.402   1_455  A
C3230      F3231   1.357       .  S
C3235      C3236   1.403       .  A
C3235      C3240   1.392       .  A
C3235      H3242   1.083       .  S
C3237      C3238   1.392       .  A
C3237      F3244   1.355       .  S
C3238      H3243   1.084       .  S
C3239      C3240   1.402       .  A
C3240      F3241   1.358       .  S
C3245      C3246   1.400       .  A
C3245      C3250   1.391       .  A
C3245      H3252   1.084       .  S
C3247      C3248   1.391       .  A
C3247      F3254   1.357       .  S
C3248      H3253   1.084       .  S
C3249      C3250   1.402       .  A
C3250      F3251   1.358       .  S
C3255      C3256   1.400   1_655  A
C3255      C3260   1.395   1_655  A
C3255      H3262   1.082       .  S
C3257      C3258   1.396       .  A
C3258      H3263   1.083       .  S
C3259      C3260   1.403   1_565  A
C3260      F3261   1.357   1_455  S
C3265      C3266   1.407       .  A
C3265      C3270   1.393       .  A
C3265      H3272   1.083       .  S
C3266      C3267   1.409       .  A
C3267      C3268   1.397       .  A
C3267      F3274   1.355       .  S
C3268      C3269   1.405       .  A
C3268      H3273   1.083       .  S
C3269      C3270   1.405       .  A
C3270      F3271   1.355       .  S
C3275      C3276   1.398       .  A
C3275      C3280   1.394       .  A
C3275      H3282   1.083       .  S
C3276      C3277   1.408       .  A
C3277      C3278   1.402       .  A
C3277      F3284   1.356       .  S
C3278      C3279   1.401       .  A
C3278      H3283   1.082       .  S
C3279      C3280   1.408       .  A
C3280      F3281   1.358       .  S
C3285      C3286   1.414       .  A
C3285      C3290   1.413       .  A
C3285      H3292   1.082       .  S
C3286      C3287   1.410       .  A
C3287      C3288   1.421       .  A
C3287      F3294   1.354       .  S
C3288      C3289   1.415       .  A
C3288      H3293   1.083       .  S
C3289      C3290   1.413       .  A
C3290      F3291   1.356       .  S
C3295      C3296   1.421       .  A
C3295      C3300   1.423       .  A
C3295      H3302   1.083       .  S
C3296      C3297   1.413       .  A
C3297      C3298   1.420       .  A
C3297      F3304   1.353       .  S
C3298      C3299   1.416       .  A
C3298      H3303   1.080       .  S
C3299      C3300   1.413       .  A
C3300      F3301   1.357       .  S
C3305      C3306   1.408       .  A
C3305      C3310   1.406       .  A
C3305      H3312   1.083       .  S
C3307      F3314   1.357       .  S
C3308      C3309   1.403       .  A
C3309      C3310   1.411       .  A
C3310      F3311   1.356       .  S
C3315      C3316   1.405       .  A
C3315      C3320   1.400       .  A
C3315      H3322   1.082       .  S
C3316      C3317   1.408       .  A
C3317      C3318   1.394       .  A
C3317      F3324   1.358       .  S
C3318      C3319   1.399       .  A
C3318      H3323   1.083       .  S
C3319      C3320   1.401       .  A
C3320      F3321   1.354       .  S
C3325      C3326   1.403       .  A
C3325      C3330   1.385       .  A
C3326      C3327   1.413       .  A
C3327      C3328   1.407       .  A
C3327      F3334   1.356       .  S
C3328      C3329   1.408       .  A
C3328      H3333   1.083       .  S
C3329      C3330   1.406       .  A
C3335      C3336   1.407       .  A
C3335      C3340   1.409       .  A
C3335      H3342   1.081       .  S
C3336      C3337   1.408       .  A
C3337      C3338   1.394       .  A
C3337      F3344   1.357       .  S
C3338      C3339   1.404       .  A
C3339      C3340   1.412       .  A
C3340      F3341   1.357       .  S
C3345      C3346   1.406       .  A
C3345      C3350   1.416       .  A
C3345      H3352   1.083       .  S
C3347      C3348   1.416       .  A
C3347      F3354   1.357   1_455  S
C3348      H3353   1.082   1_455  S
C3349      C3350   1.423       .  A
C3350      F3351   1.356       .  S
C3355      C3356   1.417       .  A
C3355      C3360   1.417       .  A
C3355      H3362   1.083       .  S
C3356      C3357   1.412       .  A
C3357      C3358   1.419       .  A
C3358      C3359   1.416       .  A
C3359      C3360   1.412       .  A
C3360      F3361   1.357       .  S
C3365      C3366   1.408       .  A
C3365      C3370   1.394       .  A
C3365      H3372   1.084       .  S
C3367      F3374   1.356   1_455  S
C3369      C3370   1.407       .  A
C3370      F3371   1.356       .  S
C3375      C3380   1.400       .  A
C3375      H3382   1.083   1_455  S
C3376      C3377   1.406   1_545  A
C3377      C3378   1.384       .  A
C3377      F3384   1.357       .  S
C3378      C3379   1.401   1_565  A
C3378      H3383   1.083       .  S
C3380      F3381   1.352   1_455  S
C3385      C3386   1.410       .  A
C3385      C3390   1.410       .  A
C3385      H3392   1.083       .  S
C3386      C3387   1.409       .  A
C3387      C3388   1.403       .  A
C3387      F3394   1.356       .  S
C3388      C3389   1.406       .  A
C3388      H3393   1.084       .  S
C3389      C3390   1.408       .  A
C3390      F3391   1.357       .  S
C3395      C3396   1.401       .  A
C3395      C3400   1.395       .  A
C3395      H3402   1.083       .  S
C3396      C3397   1.405       .  A
C3397      C3398   1.395       .  A
C3397      F3404   1.356       .  S
C3398      C3399   1.401       .  A
C3398      H3403   1.083       .  S
C3399      C3400   1.407       .  A
C3405      C3406   1.420       .  A
C3405      C3410   1.422       .  A
C3405      H3412   1.083       .  S
C3406      C3407   1.412       .  A
C3407      C3408   1.416       .  A
C3407      F3414   1.356       .  S
C3408      C3409   1.417       .  A
C3408      H3413   1.083       .  S
C3409      C3410   1.411       .  A
C3410      F3411   1.357       .  S
C3415      C3416   1.410       .  A
C3415      C3420   1.420       .  A
C3415      H3422   1.082       .  S
C3416      C3417   1.421       .  A
C3417      C3418   1.423       .  A
C3417      F3424   1.357       .  S
C3418      C3419   1.413       .  A
C3418      H3423   1.083       .  S
C3419      C3420   1.420       .  A
C3420      F3421   1.357       .  S
C3425      C3426   1.401       .  A
C3425      C3430   1.393       .  A
C3426      C3427   1.407       .  A
C3427      C3428   1.404       .  A
C3427      F3434   1.357       .  S
C3428      C3429   1.406       .  A
C3428      H3433   1.083       .  S
C3429      C3430   1.405       .  A
C3435      C3436   1.411       .  A
C3435      C3440   1.417       .  A
C3436      C3437   1.417       .  A
C3437      C3438   1.422       .  A
C3437      F3444   1.357       .  S
C3438      C3439   1.412       .  A
C3438      H3443   1.082       .  S
C3439      C3440   1.415       .  A
C3445      C3446   1.419       .  A
C3445      C3450   1.419       .  A
C3445      H3452   1.079       .  S
C3446      C3447   1.414       .  A
C3447      C3448   1.420       .  A
C3448      C3449   1.414       .  A
C3449      C3450   1.410       .  A
C3450      F3451   1.357       .  S
C3455      C3456   1.404       .  A
C3455      C3460   1.394       .  A
C3456      C3457   1.403       .  A
C3457      C3458   1.389       .  A
C3457      F3464   1.357       .  S
C3458      C3459   1.400       .  A
C3458      H3463   1.082       .  S
C3459      C3460   1.402       .  A
C3465      C3466   1.413       .  A
C3465      C3470   1.411       .  A
C3465      H3472   1.083       .  S
C3466      C3467   1.411       .  A
C3467      C3468   1.411       .  A
C3467      F3474   1.353       .  S
C3468      C3469   1.413       .  A
C3468      H3473   1.083       .  S
C3469      C3470   1.411       .  A
C3470      F3471   1.356       .  S
C3475      C3476   1.408       .  A
C3475      C3480   1.409       .  A
C3475      H3482   1.083       .  S
C3476      C3477   1.407       .  A
C3477      C3478   1.398       .  A
C3477      F3484   1.358       .  S
C3478      C3479   1.406       .  A
C3478      H3483   1.082       .  S
C3479      C3480   1.412       .  A
C3480      F3481   1.356       .  S
C3485      C3486   1.415       .  A
C3485      C3490   1.418       .  A
C3485      H3492   1.083       .  S
C3486      C3487   1.413       .  A
C3487      C3488   1.423       .  A
C3487      F3494   1.357       .  S
C3488      C3489   1.418       .  A
C3488      H3493   1.083       .  S
C3489      C3490   1.415       .  A
C3490      F3491   1.356       .  S
C3495      C3496   1.419       .  A
C3495      C3500   1.422       .  A
C3495      H3502   1.083       .  S
C3496      C3497   1.410       .  A
C3497      C3498   1.420       .  A
C3497      F3504   1.357       .  S
C3498      C3499   1.422       .  A
C3498      H3503   1.083       .  S
C3499      C3500   1.413       .  A
C3500      F3501   1.355       .  S
C3505      C3506   1.406       .  A
C3505      C3510   1.396       .  A
C3505      H3512   1.084       .  S
C3506      C3507   1.409       .  A
C3507      C3508   1.402       .  A
C3507      F3514   1.356       .  S
C3508      C3509   1.411       .  A
C3508      H3513   1.077       .  S
C3509      C3510   1.407       .  A
C3510      F3511   1.351       .  S
C3515      C3516   1.410       .  A
C3515      C3520   1.407       .  A
C3516      C3517   1.407       .  A
C3517      C3518   1.406       .  A
C3517      F3524   1.357       .  S
C3518      C3519   1.412       .  A
C3518      H3523   1.083       .  S
C3519      C3520   1.408       .  A
C3525      C3526   1.410       .  A
C3525      C3530   1.397       .  A
C3525      H3532   1.078       .  S
C3526      C3527   1.420       .  A
C3528      H3533   1.079       .  S
C3529      C3530   1.402       .  A
C3530      F3531   1.352       .  S
C3535      C3536   1.398       .  A
C3535      C3540   1.389       .  A
C3535      H3542   1.084       .  S
C3537      C3538   1.389       .  A
C3537      F3544   1.358   1_455  S
C3538      C3539   1.400       .  A
C3538      H3543   1.084   1_455  S
C3540      F3541   1.356       .  S
C3545      C3546   1.416       .  A
C3545      C3550   1.421       .  A
C3545      H3552   1.083       .  S
C3547      C3548   1.416       .  A
C3547      F3554   1.357   1_455  S
C3548      H3553   1.074   1_455  S
C3549      C3550   1.413       .  A
C3550      F3551   1.357       .  S
C3555      C3560   1.421       .  A
C3555      H3562   1.083   1_455  S
C3556      C3557   1.414       .  A
C3557      C3558   1.417       .  A
C3557      F3564   1.353       .  S
C3558      C3559   1.411       .  A
C3558      H3563   1.083       .  S
C3560      F3561   1.357   1_455  S
C3565      C3570   1.379       .  A
C3565      H3572   1.079       .  S
C3566      C3567   1.405       .  A
C3567      C3568   1.393       .  A
C3567      F3574   1.355       .  S
C3568      C3569   1.405       .  A
C3568      H3573   1.082       .  S
C3570      F3571   1.354       .  S
C3575      C3580   1.394       .  A
C3575      H3582   1.083       .  S
C3576      C3577   1.402   1_545  A
C3577      C3578   1.386       .  A
C3577      F3584   1.359   1_455  S
C3578      C3579   1.400   1_565  A
C3578      H3583   1.084   1_455  S
C3580      F3581   1.356       .  S
