geometry optimzed in LAMMPS
_audit_creation_date              2020-11-30 
_audit_creation_method            'lammps2cif' 
_symmetry_space_group_name_H-M    'P1' 
_symmetry_Int_Tables_number       1 
_symmetry_cell_setting            triclinic 
loop_ 
_symmetry_equiv_pos_as_xyz 
  x,y,z 
_cell_length_a                    39.80479769 
_cell_length_b                    39.81985314975706 
_cell_length_c                    65.68677800930014 
_cell_angle_alpha                 90.35893093659989 
_cell_angle_beta                  89.79122882416696 
_cell_angle_gamma                 125.21660421122743 
loop_ 
_atom_site_label 
_atom_site_type_symbol 
_atom_site_fract_x 
_atom_site_fract_y 
_atom_site_fract_z 
_atom_site_charge 
O1          O  0.04039653  0.85057855  0.10207505    -0.57200
C2          C  0.92746481  0.78048200  0.10712714     0.75500
O3          O  0.02729947  0.77001665  0.07804516    -0.58300
C4          C  0.07401654  0.85474428  0.10516651     0.75400
C5          C  0.00089509  0.75206761  0.14967769     0.77800
Cd6        Cd  0.99722624  0.77657916  0.10888296     1.37500
O7          O  0.96388589  0.81221951  0.10565799    -0.57100
O8          O  0.00475245  0.78501685  0.14555783    -0.56000
C9          C  0.99506707  0.73912609  0.07043643     0.77800
O10         O  0.99498690  0.72915242  0.13464113    -0.58300
O11         O  0.92370463  0.74694713  0.10956196    -0.56800
O12         O  0.07143115  0.82249002  0.10985102    -0.56800
O13         O  0.96343216  0.72240502  0.08163226    -0.55900
O14         O  0.93144505  0.62461595  0.27765377    -0.57200
C15         C  0.89276720  0.70141112  0.27275015     0.75500
O16         O  0.01564186  0.74834461  0.30256926    -0.58300
C17         C  0.96515984  0.62831448  0.27952652     0.75400
C18         C  0.99122177  0.72163277  0.23598458     0.77800
Cd19       Cd  0.96284124  0.69895475  0.27722786     1.37500
O20         O  0.88901099  0.66848258  0.27726517    -0.57100
O21         O  0.96065565  0.68667915  0.24143101    -0.56000
C22         C  0.99002190  0.73423601  0.31717892     0.77800
O23         O  0.01099294  0.74745840  0.25027115    -0.58300
O24         O  0.92918707  0.73321933  0.27072636    -0.56800
O25         O  0.99699391  0.66458646  0.28152920    -0.56800
O26         O  0.95316624  0.70582167  0.31282984    -0.55900
O27         O  0.12064857  0.78002064  0.61562027    -0.57200
C28         C  0.05114695  0.66336196  0.60811820     0.75500
O29         O  0.01014851  0.74725591  0.63802701    -0.58300
C30         C  0.12182033  0.81251901  0.61569443     0.75400
C31         C  0.01957899  0.73286505  0.57090123     0.77800
Cd32       Cd  0.04636073  0.73242104  0.61184849     1.37500
O33         O  0.08319886  0.69968039  0.61013248    -0.57100
O34         O  0.05655727  0.74985667  0.57592368    -0.56000
C35         C  0.01222881  0.72669865  0.65198630     0.77800
O36         O  0.99340107  0.71578294  0.58521609    -0.58300
O37         O  0.01716926  0.65930795  0.60792380    -0.56800
O38         O  0.08745383  0.80734037  0.61451638    -0.56800
O39         O  0.02612214  0.70631282  0.64679364    -0.55900
O40         O  0.89214453  0.66178944  0.43948699    -0.57200
C41         C  0.97380325  0.62833512  0.43775715     0.75500
O42         O  0.01396933  0.75377568  0.41805838    -0.58300
C43         C  0.89534879  0.69537217  0.43957023     0.75400
C44         C  0.98202575  0.71205331  0.48445011     0.77800
Cd45       Cd  0.96629062  0.69504260  0.44154443     1.37500
O46         O  0.93946234  0.62319914  0.43558215    -0.57100
O47         O  0.94898190  0.68190224  0.47695367    -0.56000
C48         C  0.99484662  0.73206370  0.40239098     0.77800
O49         O  0.00950477  0.73633196  0.47160446    -0.58300
O50         O  0.00454927  0.66452334  0.44169520    -0.56800
O51         O  0.93135897  0.72802674  0.44105942    -0.56800
O52         O  0.96636012  0.69465567  0.40522418    -0.55900
O53         O  0.96732599  0.81094379  0.94888115    -0.57200
C54         C  0.07588072  0.84783974  0.94698278     0.75500
O55         O  0.96530976  0.71249967  0.97090656    -0.58300
C56         C  0.93011637  0.78048188  0.94947529     0.75400
C57         C  0.99450490  0.74313934  0.90463860     0.77800
Cd58       Cd  0.99621381  0.77108212  0.94587875     1.37500
O59         O  0.04296151  0.84568462  0.94792982    -0.57100
O60         O  0.98459938  0.76713962  0.90928822    -0.56000
C61         C  0.99131794  0.73457715  0.98464839     0.77800
O62         O  0.00332630  0.72957902  0.91956813    -0.58300
O63         O  0.07178662  0.81394615  0.94509104    -0.56800
O64         O  0.92369996  0.74539386  0.94898175    -0.56800
O65         O  0.01977043  0.77081138  0.97964198    -0.55900
O66         O  0.08698866  0.70342699  0.77555464    -0.57200
C67         C  0.12232476  0.81495489  0.77721627     0.75500
O68         O  0.99096702  0.70253381  0.75175688    -0.58300
C69         C  0.05629948  0.66741450  0.77144053     0.75400
C70         C  0.01829945  0.72659233  0.81866665     0.77800
Cd71       Cd  0.04803968  0.73335330  0.77752469     1.37500
O72         O  0.12215473  0.78326960  0.77461097    -0.57100
O73         O  0.04626238  0.72188213  0.81432892    -0.56000
C74         C  0.01265480  0.72953501  0.73841033     0.77800
O75         O  0.00205240  0.73201495  0.80364794    -0.58300
O76         O  0.08763777  0.80858038  0.78020419    -0.56800
O77         O  0.02196481  0.66234885  0.77000911    -0.56800
O78         O  0.04789886  0.75929797  0.74414369    -0.55900
O79         O  0.74397413  0.85527878  0.09549883    -0.57200
C80         C  0.78088802  0.77854382  0.10035788     0.75500
O81         O  0.66469550  0.73442117  0.12574521    -0.58300
C82         C  0.71143252  0.85349903  0.09799454     0.75400
C83         C  0.67807756  0.74544531  0.05866221     0.77800
Cd84       Cd  0.71082500  0.78138797  0.09813584     1.37500
O85         O  0.78447375  0.81166122  0.09650606    -0.57100
O86         O  0.71491369  0.77537727  0.06168345    -0.56000
C87         C  0.68641655  0.75969851  0.13991629     0.77800
O88         O  0.65486622  0.73052468  0.07418208    -0.58300
O89         O  0.74462455  0.74699547  0.10293791    -0.56800
O90         O  0.67826644  0.81785150  0.09925929    -0.56800
O91         O  0.71789736  0.79392672  0.13429760    -0.55900
O92         O  0.71866357  0.67978799  0.26870563    -0.57200
C93         C  0.60425338  0.63499674  0.27475268     0.75500
O94         O  0.71015878  0.73426788  0.30268498    -0.58300
C95         C  0.75425886  0.71260856  0.26629821     0.75400
C96         C  0.67653654  0.73258702  0.22699188     0.77800
Cd97       Cd  0.68208249  0.71215784  0.26859525     1.37500
O98         O  0.63788122  0.63840052  0.27491949    -0.57100
O99         O  0.66810974  0.69812060  0.23232684    -0.56000
C100        C  0.69462943  0.75334309  0.30735440     0.77800
O101        O  0.68723892  0.75850603  0.24127612    -0.58300
O102        O  0.60724126  0.66811886  0.27257629    -0.56800
O103        O  0.75603172  0.74515813  0.26396287    -0.56800
O104        O  0.67424735  0.75609016  0.29347915    -0.55900
O105        O  0.64625614  0.64401959  0.42054487    -0.57200
C106        C  0.76109617  0.71175713  0.43091450     0.75500
O107        O  0.68165375  0.75835591  0.40587147    -0.58300
C108        C  0.61318588  0.64043120  0.42422264     0.75400
C109        C  0.69904967  0.74269589  0.47202717     0.77800
Cd110      Cd  0.69301799  0.71688273  0.42992264     1.37500
O111        O  0.72458307  0.67997868  0.42894563    -0.57100
O112        O  0.69515136  0.71008996  0.46676249    -0.56000
C113        C  0.70515967  0.76007569  0.39219427     0.77800
O114        O  0.70040421  0.76442885  0.45756816    -0.58300
O115        O  0.76571536  0.74595960  0.43205556    -0.56800
O116        O  0.61715062  0.67267780  0.43047812    -0.56800
O117        O  0.72430736  0.74460969  0.39667041    -0.55900
O118        O  0.57492662  0.70460181  0.59794139    -0.57200
C119        C  0.64319124  0.81741583  0.60315542     0.75500
O120        O  0.70295198  0.78121976  0.62610750    -0.58300
C121        C  0.57251321  0.67192846  0.59470412     0.75400
C122        C  0.68242723  0.75757254  0.55854248     0.77800
Cd123      Cd  0.64971299  0.74993528  0.59893367     1.37500
O124        O  0.61203057  0.78058402  0.60427636    -0.57100
O125        O  0.65510895  0.76318294  0.56289420    -0.56000
C126        C  0.68106525  0.75385578  0.63922783     0.77800
O127        O  0.69691774  0.74967262  0.57348112    -0.58300
O128        O  0.67728410  0.82256577  0.60005733    -0.56800
O129        O  0.60636940  0.67567533  0.59363244    -0.56800
O130        O  0.64777966  0.72217283  0.63278538    -0.55900
O131        O  0.75238007  0.85985000  0.94317111    -0.57200
C132        C  0.78763061  0.78477796  0.94526883     0.75500
O133        O  0.67074677  0.72480932  0.95977931    -0.58300
C134        C  0.72142439  0.85973621  0.93851938     0.75400
C135        C  0.69610732  0.76316180  0.89490271     0.77800
Cd136      Cd  0.71714870  0.78548817  0.93747425     1.37500
O137        O  0.79040867  0.81811333  0.94486258    -0.57100
O138        O  0.73133512  0.79249743  0.90097645    -0.56000
C139        C  0.67186230  0.74666810  0.97424014     0.77800
O140        O  0.67009116  0.74263133  0.90887134    -0.58300
O141        O  0.75242709  0.75237284  0.94183672    -0.56800
O142        O  0.68934416  0.82540749  0.93314079    -0.56800
O143        O  0.69038736  0.78455206  0.97080440    -0.55900
O144        O  0.56611353  0.70676936  0.76290354    -0.57200
C145        C  0.64168716  0.82520269  0.76789166     0.75500
O146        O  0.69043558  0.76311700  0.79312411    -0.58300
C147        C  0.56434270  0.67412590  0.76130356     0.75400
C148        C  0.67649356  0.75988915  0.72617241     0.77800
Cd149      Cd  0.64089363  0.75289617  0.76602147     1.37500
O150        O  0.60885362  0.78996528  0.76452057    -0.57100
O151        O  0.66143793  0.77920089  0.73136304    -0.48800
C152        C  0.66475780  0.75097073  0.80761617     0.77800
O153        O  0.67891173  0.73954204  0.74015298    -0.58300
O154        O  0.67397111  0.82652510  0.77037243    -0.56800
O155        O  0.59847839  0.67853850  0.76159488    -0.56800
O156        O  0.62890343  0.73898219  0.80248705    -0.55900
O157        O  0.74121591  0.03162948  0.09955335    -0.57200
C158        C  0.78909303  0.14780119  0.09769986     0.75500
O159        O  0.67622293  0.08959797  0.07895706    -0.58300
C160        C  0.70787613  0.99664773  0.10258406     0.75400
C161        C  0.69029081  0.06851193  0.14495792     0.77800
Cd162      Cd  0.71110997  0.07010828  0.10284376     1.37500
O163        O  0.78503686  0.11404778  0.09547508    -0.57100
O164        O  0.72528034  0.08014916  0.13858222    -0.56000
C165        C  0.67249777  0.06564985  0.06494074     0.77800
O166        O  0.66347571  0.05884496  0.13134078    -0.58300
O167        O  0.75677041  0.14528914  0.10222291    -0.56800
O168        O  0.67627127  0.99611425  0.10606908    -0.56800
O169        O  0.68238333  0.04168073  0.06945321    -0.55900
O170        O  0.63749470  0.13782118  0.28228087    -0.57200
C171        C  0.74961736  0.18509646  0.27000610     0.75500
O172        O  0.65065099  0.04743162  0.29571335    -0.58300
C173        C  0.60155959  0.10642825  0.27881505     0.75400
C174        C  0.66634939  0.08046236  0.23081013     0.77800
Cd175      Cd  0.67279221  0.10631241  0.27244527     1.37500
O176        O  0.71646745  0.18087374  0.27452268    -0.57100
O177        O  0.65761564  0.10489972  0.23643281    -0.56000
C178        C  0.67497181  0.06999531  0.30989484     0.77800
O179        O  0.67699321  0.06639156  0.24473757    -0.58300
O180        O  0.74709578  0.15243795  0.26626635    -0.56800
O181        O  0.59874723  0.07460216  0.27284165    -0.56800
O182        O  0.70044310  0.10752246  0.30576059    -0.55900
O183        O  0.64439731  0.13591592  0.43201043    -0.57200
C184        C  0.75435666  0.17675270  0.42937942     0.75500
O185        O  0.65629551  0.04789601  0.46303530    -0.58300
C186        C  0.60803785  0.10450015  0.43488009     0.75400
C187        C  0.67234577  0.06272591  0.39599642     0.77800
Cd188      Cd  0.67693110  0.09941180  0.43517873     1.37500
O189        O  0.72109860  0.17413310  0.43046103    -0.57100
O190        O  0.64505496  0.06691861  0.40246060    -0.56000
C191        C  0.67455357  0.07456786  0.47707370     0.77800
O192        O  0.69938941  0.06998880  0.40887766    -0.58300
O193        O  0.75113618  0.14336440  0.43087022    -0.56800
O194        O  0.60400973  0.07107716  0.43812341    -0.56800
O195        O  0.69618313  0.11152490  0.47136661    -0.55900
O196        O  0.60464031  0.95551959  0.60859542    -0.57200
C197        C  0.56375392  0.03008154  0.60967453     0.75500
O198        O  0.68909071  0.08672278  0.63012235    -0.58300
C199        C  0.63895095  0.96014611  0.60778520     0.75400
C200        C  0.65628434  0.04829212  0.56471230     0.77800
Cd201      Cd  0.63526475  0.02932660  0.60733587     1.37500
O202        O  0.56112934  0.99704702  0.61164046    -0.57100
O203        O  0.62531929  0.01456504  0.57116607    -0.56000
C204        C  0.67344908  0.06512635  0.64608712     0.77800
O205        O  0.67904940  0.07450234  0.57834943    -0.58300
O206        O  0.59961422  0.06221654  0.60687068    -0.56800
O207        O  0.67080127  0.99674311  0.60769890    -0.56800
O208        O  0.64160116  0.02899855  0.64376983    -0.55900
O209        O  0.74557359  0.03573943  0.94443570    -0.57200
C210        C  0.79248040  0.14839367  0.94852751     0.75500
O211        O  0.66573890  0.06464736  0.91450608    -0.58300
C212        C  0.71368351  0.00064790  0.93987679     0.75400
C213        C  0.67224899  0.06406428  0.97973981     0.77800
Cd214      Cd  0.71359021  0.07239992  0.94189502     1.37500
O215        O  0.78799574  0.11425834  0.94778738    -0.57100
O216        O  0.68281265  0.04085764  0.97455900    -0.56000
C217        C  0.69144451  0.07530943  0.90019411     0.77800
O218        O  0.67761057  0.08988444  0.96659580    -0.58300
O219        O  0.76007394  0.14697863  0.94686711    -0.56800
O220        O  0.68132669  0.99875825  0.93646155    -0.56800
O221        O  0.72660282  0.08558188  0.90557737    -0.55900
O222        O  0.56602910  0.01405989  0.76774813    -0.57200
C223        C  0.63653785  0.96796314  0.76971630     0.75500
O224        O  0.68935306  0.09673046  0.74601690    -0.58300
C225        C  0.57161750  0.04880347  0.76863430     0.75400
C226        C  0.66243166  0.06319672  0.81279738     0.77800
Cd227      Cd  0.63919407  0.04142145  0.77058173     1.37500
O228        O  0.60420144  0.96679685  0.76770951    -0.57100
O229        O  0.62686634  0.03436830  0.80684822    -0.56000
C230        C  0.67484252  0.07209121  0.73092669     0.77800
O231        O  0.68858857  0.08341642  0.79876397    -0.58300
O232        O  0.66967178  0.00318006  0.77263625    -0.56800
O233        O  0.60855286  0.07972950  0.76999967    -0.56800
O234        O  0.64608023  0.03515991  0.73458796    -0.55900
O235        O  0.24240371  0.04031284  0.09939284    -0.57200
C236        C  0.30897849  0.15050313  0.10555547     0.75500
O237        O  0.35757157  0.08158679  0.13580969    -0.58300
C238        C  0.23692081  0.00635905  0.10331200     0.75400
C239        C  0.35701844  0.08907894  0.06998700     0.77800
Cd240      Cd  0.31534594  0.08248290  0.10781300     1.37500
O241        O  0.27967627  0.11442001  0.10053068    -0.57100
O242        O  0.36929462  0.11995952  0.08124619    -0.56000
C243        C  0.33453761  0.07895236  0.15004882     0.77800
O244        O  0.32998407  0.05478922  0.07782397    -0.58300
O245        O  0.34149665  0.15504437  0.11175935    -0.56800
O246        O  0.26822421  0.00806930  0.10894915    -0.56800
O247        O  0.30398852  0.07851432  0.14449785    -0.55900
O248        O  0.41914818  0.18563386  0.27734126    -0.57200
C249        C  0.45709941  0.10810659  0.28117575     0.75500
O250        O  0.34131344  0.05488442  0.30401431    -0.58300
C251        C  0.38518138  0.18185107  0.27702295     0.75400
C252        C  0.36090943  0.08574415  0.23726425     0.77800
Cd253      Cd  0.38683821  0.11089449  0.27888179     1.37500
O254        O  0.46116157  0.14201944  0.28307034    -0.57100
O255        O  0.39701382  0.11413135  0.24270542    -0.56000
C256        C  0.35226147  0.08024496  0.31862739     0.77800
O257        O  0.33519815  0.06662520  0.25159488    -0.58300
O258        O  0.42079863  0.07631903  0.27922139    -0.56800
O259        O  0.35318212  0.14545338  0.27783575    -0.56800
O260        O  0.37682726  0.11789313  0.31434616    -0.55900
O261        O  0.47448628  0.15263392  0.43790210    -0.57200
C262        C  0.39855473  0.19128809  0.43891603     0.75500
O263        O  0.34411255  0.06464018  0.41935288    -0.58300
C264        C  0.47153534  0.11925855  0.43829556     0.75400
C265        C  0.37844182  0.10272739  0.48407784     0.77800
Cd266      Cd  0.40049435  0.12093291  0.44154223     1.37500
O267        O  0.43237093  0.19492821  0.43813282    -0.57100
O268        O  0.41139052  0.13470559  0.47776471    -0.56000
C269        C  0.36011512  0.08593455  0.40332865     0.77800
O270        O  0.35473615  0.07727149  0.47038664    -0.58300
O271        O  0.36645014  0.15521547  0.44090707    -0.56800
O272        O  0.43546394  0.08672681  0.43990319    -0.56800
O273        O  0.39377920  0.12076934  0.40534230    -0.55900
O274        O  0.31473558  0.97576999  0.62046208    -0.57200
C275        C  0.42769277  0.04609617  0.61120858     0.75500
O276        O  0.36985336  0.09535480  0.58395293    -0.58300
C277        C  0.28071727  0.97058164  0.61747153     0.75400
C278        C  0.36156811  0.08943928  0.65026443     0.77800
Cd279      Cd  0.35739864  0.04875952  0.61270945     1.37500
O280        O  0.39225461  0.01527965  0.61606428    -0.57100
O281        O  0.34177635  0.08941108  0.63519606    -0.56000
C282        C  0.35404712  0.06697423  0.57057030     0.77800
O283        O  0.38205255  0.07481071  0.64713985    -0.58300
O284        O  0.43045533  0.07853689  0.60679358    -0.56800
O285        O  0.28260388  0.00262721  0.61327369    -0.56800
O286        O  0.33941880  0.03141574  0.57713226    -0.55900
O287        O  0.31319234  0.97924289  0.77112241    -0.57200
C288        C  0.42841431  0.05333791  0.76826162     0.75500
O289        O  0.33125295  0.05164177  0.73959852    -0.58300
C290        C  0.27935054  0.97470344  0.77393370     0.75400
C291        C  0.35868940  0.07820357  0.81559633     0.77800
Cd292      Cd  0.35683720  0.05401090  0.77360803     1.37500
O293        O  0.39221681  0.02098960  0.76799335    -0.57100
O294        O  0.36932338  0.05517812  0.81010799    -0.56000
C295        C  0.35559379  0.08926820  0.73530540     0.77800
O296        O  0.34922344  0.09264590  0.80133927    -0.58300
O297        O  0.43160501  0.08667929  0.77062167    -0.56800
O298        O  0.28150307  0.00738822  0.77692434    -0.56800
O299        O  0.37902102  0.11255825  0.74958951    -0.55900
O300        O  0.28434457  0.11942122  0.95020356    -0.57200
C301        C  0.23772840  0.00234129  0.94655720     0.75500
O302        O  0.36401231  0.09354862  0.91706140    -0.58300
C303        C  0.31550539  0.15398976  0.94447786     0.75400
C304        C  0.35252642  0.08919849  0.98384328     0.77800
Cd305      Cd  0.31485143  0.08198583  0.94486347     1.37500
O306        O  0.23995550  0.03534238  0.94736347    -0.57100
O307        O  0.33333006  0.10490951  0.98008454    -0.56000
C308        C  0.33895528  0.08585606  0.90281660     0.77800
O309        O  0.35733267  0.07177193  0.96900764    -0.58300
O310        O  0.27160472  0.00638669  0.94549956    -0.56800
O311        O  0.34667480  0.15488168  0.93931980    -0.56800
O312        O  0.30397299  0.07594657  0.90841731    -0.55900
O313        O  0.23186316  0.33328874  0.09344238    -0.57200
C314        C  0.30638188  0.29403177  0.10157241     0.75500
O315        O  0.35352730  0.42317895  0.07400812    -0.58300
C316        C  0.23557549  0.36712164  0.09441155     0.75400
C317        C  0.32802754  0.39038150  0.14002439     0.77800
Cd318      Cd  0.30642133  0.36546278  0.09804593     1.37500
O319        O  0.27430492  0.29141918  0.09626573    -0.57100
O320        O  0.29228204  0.36171450  0.13422644    -0.56000
C321        C  0.34388412  0.39927765  0.05886596     0.77800
O322        O  0.35448067  0.40960091  0.12599161    -0.58300
O323        O  0.33848958  0.32981792  0.10468008    -0.56800
O324        O  0.27175221  0.39908809  0.09629964    -0.56800
O325        O  0.32078584  0.36120338  0.06242861    -0.55900
O326        O  0.44975119  0.43857656  0.27267135    -0.57200
C327        C  0.38279388  0.32620304  0.27141263     0.75500
O328        O  0.32256687  0.35100744  0.29496570    -0.58300
C329        C  0.45179957  0.47139081  0.27421647     0.75400
C330        C  0.35419389  0.39796575  0.22714122     0.77800
Cd331      Cd  0.37496828  0.39318826  0.26868872     1.37500
O332        O  0.40982435  0.36133622  0.27865849    -0.57100
O333        O  0.38667129  0.40180015  0.23243784    -0.56000
C334        C  0.33033961  0.38091687  0.30586356     0.77800
O335        O  0.32970111  0.39132629  0.24148376    -0.58300
O336        O  0.35253101  0.32266095  0.26269711    -0.56800
O337        O  0.41781908  0.46729479  0.27352868    -0.56800
O338        O  0.35411459  0.41599515  0.29793583    -0.55900
O339        O  0.42341690  0.36913725  0.42669480    -0.57200
C340        C  0.45525196  0.48180058  0.42454414     0.75500
O341        O  0.33709401  0.40466272  0.40557046    -0.58300
C342        C  0.39274626  0.33243536  0.42955026     0.75400
C343        C  0.35770015  0.38862410  0.47035978     0.77800
Cd344      Cd  0.38350777  0.39832240  0.42848258     1.37500
O345        O  0.45505878  0.45096222  0.41945913    -0.57100
O346        O  0.39285142  0.39896030  0.46494063    -0.56000
C347        C  0.33924884  0.38477166  0.39110049     0.77800
O348        O  0.33366791  0.38366488  0.45612405    -0.58300
O349        O  0.42149838  0.47383626  0.43108025    -0.56800
O350        O  0.35806843  0.32677585  0.43116386    -0.56800
O351        O  0.35884756  0.36940994  0.39468991    -0.55900
O352        O  0.30765774  0.46940294  0.60110497    -0.57200
C353        C  0.41823319  0.51031944  0.59299635     0.75500
O354        O  0.31525650  0.37741600  0.62155234    -0.58300
C355        C  0.27113409  0.43762733  0.60050647     0.75400
C356        C  0.33203560  0.40240421  0.55527944     0.77800
Cd357      Cd  0.33977710  0.43344119  0.59601890     1.37500
O358        O  0.38552993  0.50806805  0.59598914    -0.57100
O359        O  0.32714724  0.43012462  0.55979161    -0.56000
C360        C  0.33900680  0.40141229  0.63554418     0.77800
O361        O  0.33995358  0.38745838  0.56999726    -0.58300
O362        O  0.41413870  0.47647024  0.59101776    -0.56800
O363        O  0.26659343  0.40365251  0.59817455    -0.56800
O364        O  0.36510000  0.43833439  0.63048037    -0.55900
O365        O  0.37904386  0.50638127  0.75950918    -0.57200
C366        C  0.26858228  0.43982671  0.76041086     0.75500
O367        O  0.35934800  0.40390881  0.73532318    -0.58300
C368        C  0.41276777  0.51003241  0.75845227     0.75400
C369        C  0.33531958  0.40843098  0.80354380     0.77800
Cd370      Cd  0.33532278  0.43163982  0.76145710     1.37500
O371        O  0.30463844  0.46870033  0.75515864    -0.57100
O372        O  0.34829189  0.44408302  0.79771935    -0.56000
C373        C  0.33218420  0.39553783  0.72228153     0.77800
O374        O  0.32213559  0.38169765  0.78944793    -0.58300
O375        O  0.26335565  0.40659351  0.76588265    -0.56800
O376        O  0.41011747  0.47684379  0.75794872    -0.56800
O377        O  0.30353772  0.39783747  0.72859114    -0.55900
O378        O  0.23174463  0.33435066  0.93436249    -0.57200
C379        C  0.30411206  0.29261037  0.93812900     0.75500
O380        O  0.34943605  0.40993300  0.90509950    -0.58300
C381        C  0.23529378  0.36799951  0.93329338     0.75400
C382        C  0.33861727  0.39970961  0.97338760     0.77800
Cd383      Cd  0.30500798  0.36451644  0.93375699     1.37500
O384        O  0.27109685  0.29040680  0.93789363    -0.57100
O385        O  0.30122962  0.37135805  0.97019062    -0.56000
C386        C  0.32740262  0.38368136  0.89131744     0.77800
O387        O  0.36193914  0.41431449  0.95786109    -0.58300
O388        O  0.33700310  0.32831788  0.93626512    -0.56800
O389        O  0.27169002  0.40026111  0.93216914    -0.56800
O390        O  0.29709673  0.34929345  0.89755745    -0.55900
O391        O  0.97784777  0.30881397  0.08777009    -0.57200
C392        C  0.09336925  0.37306606  0.09034696     0.75500
O393        O  0.06361384  0.43289370  0.06520578    -0.58300
C394        C  0.94656099  0.30706548  0.09380242     0.75400
C395        C  0.03465719  0.41160140  0.13565960     0.77800
Cd396      Cd  0.02746653  0.38313141  0.09374862     1.37500
O397        O  0.05637983  0.34267865  0.08772594    -0.57100
O398        O  0.03595801  0.38181897  0.13046175    -0.56000
C399        C  0.03166482  0.42358898  0.05582973     0.77800
O400        O  0.03169750  0.43038887  0.12103774    -0.58300
O401        O  0.09905627  0.40738638  0.09362675    -0.56800
O402        O  0.95303678  0.34084048  0.09921654    -0.56800
O403        O  0.99830107  0.39910632  0.06513666    -0.55900
O404        O  0.94281213  0.45206368  0.26483934    -0.57200
C405        C  0.90563694  0.34346584  0.26308567     0.75500
O406        O  0.02745050  0.42027997  0.23707087    -0.58300
C407        C  0.97327326  0.48862865  0.26798230     0.75400
C408        C  0.01788406  0.42444653  0.30195368     0.77800
Cd409      Cd  0.98236327  0.42259648  0.26288169     1.37500
O410        O  0.90797142  0.37583112  0.26729844    -0.57100
O411        O  0.98243664  0.39489597  0.29636514    -0.56000
C412        C  0.01356060  0.42819331  0.22190868     0.77800
O413        O  0.03908896  0.45166661  0.28863311    -0.58300
O414        O  0.93895931  0.34806291  0.25846921    -0.56800
O415        O  0.00809372  0.49449000  0.26864641    -0.56800
O416        O  0.98729762  0.43545916  0.22595815    -0.55900
O417        O  0.09834089  0.53038971  0.59698341    -0.57200
C418        C  0.13196017  0.44705847  0.59798180     0.75500
O419        O  0.01365786  0.40504354  0.62181311    -0.58300
C420        C  0.06463497  0.52689849  0.59788849     0.75400
C421        C  0.04543225  0.43259518  0.55438989     0.77800
Cd422      Cd  0.06595722  0.45575489  0.59635516     1.37500
O423        O  0.13853833  0.48228075  0.59885533    -0.57100
O424        O  0.07788106  0.46552687  0.56046427    -0.56000
C425        C  0.03855566  0.42411074  0.63652617     0.77800
O426        O  0.02042323  0.40901565  0.56822718    -0.58300
O427        O  0.09490308  0.41649182  0.59624733    -0.56800
O428        O  0.03209230  0.49058979  0.59788943    -0.56800
O429        O  0.07275564  0.45709144  0.63231265    -0.55900
O430        O  0.90789274  0.37044197  0.42554263    -0.57200
C431        C  0.98045496  0.48781256  0.42824841     0.75500
O432        O  0.03121661  0.42593790  0.45442137    -0.58300
C433        C  0.90675433  0.33833789  0.42287602     0.75400
C434        C  0.02092817  0.42612271  0.38801107     0.77800
Cd435      Cd  0.98279999  0.41739179  0.42708363     1.37500
O436        O  0.94976315  0.45278884  0.42272172    -0.57100
O437        O  0.00532669  0.44504667  0.39289682    -0.56000
C438        C  0.00480505  0.41332336  0.46862411     0.77800
O439        O  0.02297406  0.40557473  0.40200803    -0.58300
O440        O  0.01245260  0.49008491  0.43332976    -0.56800
O441        O  0.94104565  0.34328559  0.42140704    -0.56800
O442        O  0.96976998  0.40328225  0.46330021    -0.55900
O443        O  0.09279485  0.52846069  0.76276037    -0.57200
C444        C  0.13092125  0.45223483  0.76396046     0.75500
O445        O  0.01465455  0.40685428  0.79009724    -0.58300
C446        C  0.05924746  0.52519572  0.76140055     0.75400
C447        C  0.03490865  0.42296337  0.72221178     0.77800
Cd448      Cd  0.06105394  0.45516637  0.76274245     1.37500
O449        O  0.13520184  0.48596867  0.76102324    -0.57100
O450        O  0.06998735  0.45453590  0.72682063    -0.56000
C451        C  0.03429160  0.43297532  0.80433711     0.77800
O452        O  0.00935207  0.40488931  0.73673116    -0.58300
O453        O  0.09460288  0.42072823  0.76647220    -0.56800
O454        O  0.02664247  0.48920309  0.75985645    -0.56800
O455        O  0.06487523  0.46790508  0.79895868    -0.55900
O456        O  0.98613529  0.30883644  0.94290046    -0.57200
C457        C  0.09717624  0.38109023  0.93235636     0.75500
O458        O  0.03170468  0.42461539  0.90362512    -0.58300
C459        C  0.95133545  0.30289154  0.94254336     0.75400
C460        C  0.03045195  0.42355154  0.97006046     0.77800
Cd461      Cd  0.02504758  0.38112756  0.93304741     1.37500
O462        O  0.06135793  0.34878602  0.93509048    -0.57100
O463        O  0.05674437  0.41678591  0.96515093    -0.56000
C464        C  0.01747660  0.39589321  0.89051537     0.77800
O465        O  0.00434869  0.41596011  0.95651934    -0.58300
O466        O  0.09946342  0.41387125  0.92982418    -0.56800
O467        O  0.95096390  0.33368596  0.93846103    -0.56800
O468        O  0.00642667  0.36157612  0.89747897    -0.55900
C469        C  0.00645878  0.38240953  0.83237805    -0.05100
C470        C  0.02390124  0.42293853  0.82626542     0.00800
C471        C  0.03355448  0.45308994  0.84130887    -0.07800
C472        C  0.02945042  0.44233346  0.86199811    -0.05100
C473        C  0.01535482  0.40254601  0.86825596     0.00800
C474        C  0.00157591  0.37131948  0.85307595    -0.07700
C475        C  0.98247835  0.32653091  0.85824238     0.62700
H476        H  0.99840662  0.35963398  0.82069930     0.13400
H477        H  0.03868565  0.46570962  0.87350319     0.13400
C478        C  0.04825007  0.49661670  0.83583157     0.62900
F479        F  0.96828282  0.30160566  0.84108421    -0.22200
F480        F  0.94923120  0.31203704  0.87109470    -0.19600
F481        F  0.01139134  0.32283260  0.86744128    -0.19200
F482        F  0.02392138  0.49571248  0.82053576    -0.19300
F483        F  0.08872168  0.51873842  0.82942769    -0.19600
F484        F  0.04606280  0.51711826  0.85232916    -0.22300
C485        C  0.99544225  0.40334349  0.66784195    -0.05100
C486        C  0.02995970  0.40979047  0.65784097     0.00800
C487        C  0.06013023  0.40986020  0.66925107    -0.07800
C488        C  0.05815742  0.41007662  0.69052294    -0.05100
C489        C  0.02658881  0.40909526  0.70070008     0.00800
C490        C  0.99316295  0.40281611  0.68936000    -0.07700
C491        C  0.95694851  0.39847642  0.69988948     0.62700
H492        H  0.97215488  0.40232770  0.65881138     0.13400
H493        H  0.08312546  0.41396454  0.69938715     0.13400
C494        C  0.09630107  0.41296684  0.65921304     0.62900
F495        F  0.92743398  0.39184588  0.68610635    -0.22200
F496        F  0.97016405  0.43384640  0.71082286    -0.19600
F497        F  0.93877649  0.36538238  0.71300772    -0.19200
F498        F  0.12654007  0.45347519  0.65446490    -0.19300
F499        F  0.08374817  0.38935853  0.64164021    -0.19600
F500        F  0.11316493  0.39888211  0.67202165    -0.22300
C501        C  0.05601850  0.43796672  0.49639195    -0.05100
C502        C  0.01469057  0.41232324  0.49041585     0.00800
C503        C  0.98418779  0.38838063  0.50549202    -0.07800
C504        C  0.99592215  0.39471801  0.52613481    -0.05100
C505        C  0.03680880  0.42336880  0.53221930     0.00800
C506        C  0.06787116  0.44369647  0.51698324    -0.07700
C507        C  0.11346820  0.47181699  0.52206341     0.62700
H508        H  0.07913918  0.45519801  0.48478893     0.13400
H509        H  0.97264833  0.37844876  0.53778282     0.13400
C510        C  0.93930321  0.35635101  0.50016629     0.62900
F511        F  0.13775910  0.48092750  0.50498947    -0.22200
F512        F  0.12362147  0.45295162  0.53587360    -0.19600
F513        F  0.12286800  0.50847324  0.53012181    -0.19200
F514        F  0.93643282  0.33142906  0.48449544    -0.19300
F515        F  0.92094084  0.37553773  0.49439316    -0.19600
F516        F  0.91748411  0.33123454  0.51655954    -0.22300
C517        C  0.01607876  0.39065247  0.33403245    -0.05100
C518        C  0.03141790  0.42743939  0.32343833     0.00800
C519        C  0.05286056  0.46507800  0.33448363    -0.07800
C520        C  0.05220101  0.46375224  0.35592637    -0.05100
C521        C  0.03282584  0.42649806  0.36652251     0.00800
C522        C  0.01742303  0.38967247  0.35546836    -0.07700
C523        C  0.00037678  0.34924608  0.36624675     0.62700
H524        H  0.00098983  0.36221914  0.32540862     0.13400
H525        H  0.06477768  0.49176292  0.36466216     0.13400
C526        C  0.07441047  0.50632859  0.32389001     0.62900
F527        F  0.98853545  0.31756641  0.35263537    -0.22200
F528        F  0.96645006  0.33856277  0.37778242    -0.19600
F529        F  0.03032406  0.35321112  0.37880015    -0.19200
F530        F  0.04611987  0.50925673  0.31342073    -0.19300
F531        F  0.10334651  0.51031067  0.31045903    -0.19600
F532        F  0.09470551  0.53880870  0.33755332    -0.22300
C533        C  0.06644687  0.46140708  0.00156641    -0.05100
C534        C  0.02894623  0.43568480  0.99128421     0.00800
C535        C  0.99186366  0.41474296  0.00264229    -0.07800
C536        C  0.99421256  0.41584832  0.02405263    -0.05100
C537        C  0.03214858  0.43632875  0.03436104     0.00800
C538        C  0.06880473  0.46267097  0.02298665    -0.07700
C539        C  0.11063577  0.49047198  0.03297557     0.62700
H540        H  0.09446526  0.47806981  0.99264283     0.13400
H541        H  0.96616921  0.39735542  0.03280005     0.13400
C542        C  0.95010688  0.38798158  0.99238579     0.62900
F543        F  0.13946269  0.51981423  0.01954788    -0.22200
F544        F  0.12441460  0.46746688  0.03952682    -0.19600
F545        F  0.10808724  0.51099334  0.04931679    -0.19200
F546        F  0.94717202  0.35598996  0.98210035    -0.19300
F547        F  0.94517534  0.41127325  0.97883332    -0.19600
F548        F  0.91812290  0.37114821  0.00627085    -0.22300
C549        C  0.03860559  0.39736644  0.17201321    -0.05100
C550        C  0.03499512  0.42153039  0.15779236     0.00800
C551        C  0.02911016  0.45141667  0.16524578    -0.07800
C552        C  0.02460489  0.45395622  0.18643436    -0.05100
C553        C  0.02566248  0.42793395  0.20040645     0.00800
C554        C  0.03353452  0.39953377  0.19309824    -0.07700
C555        C  0.03416286  0.36978756  0.20721972     0.62700
H556        H  0.04396825  0.37521680  0.16641571     0.13400
H557        H  0.01879349  0.47565723  0.19228412     0.13400
C558        C  0.02631787  0.47980526  0.15114075     0.62900
F559        F  0.03928924  0.34279072  0.19670594    -0.22200
F560        F  0.99737116  0.34668631  0.21773365    -0.19600
F561        F  0.06635210  0.39141606  0.22085725    -0.19200
F562        F  0.99194776  0.45695356  0.13886350    -0.19300
F563        F  0.06129855  0.50174741  0.13921025    -0.19600
F564        F  0.02306512  0.50792916  0.16179358    -0.22300
C565        C  0.12811885  0.34384808  0.94029932    -0.05100
C566        C  0.13375847  0.37959307  0.93247764     0.00800
C567        C  0.17317963  0.41156926  0.92501301    -0.07800
C568        C  0.20500559  0.40597049  0.92544065    -0.05100
C569        C  0.19920376  0.37013311  0.93318236     0.00800
C570        C  0.16004648  0.33850853  0.94098283    -0.07700
C571        C  0.15169463  0.29958495  0.95046528     0.62700
H572        H  0.09813300  0.31977848  0.94609715     0.13400
H573        H  0.23506899  0.42991003  0.91965285     0.13400
C574        C  0.18219623  0.45147117  0.91657506     0.62900
F575        F  0.11282290  0.27536980  0.95898541    -0.22200
F576        F  0.17987767  0.30976358  0.96579313    -0.19600
F577        F  0.15440662  0.27625549  0.93574523    -0.19200
F578        F  0.17798430  0.47283196  0.93186959    -0.19300
F579        F  0.15544254  0.44314474  0.90080523    -0.19600
F580        F  0.22182543  0.47679417  0.90901360    -0.22300
C581        C  0.20315352  0.42132403  0.77531163    -0.05100
C582        C  0.23435230  0.44467147  0.76092315     0.00800
C583        C  0.23184157  0.47135671  0.74776509    -0.07800
C584        C  0.19789364  0.47351005  0.74964996    -0.05100
C585        C  0.16643615  0.44955552  0.76382313     0.00800
C586        C  0.16917354  0.42328186  0.77707486    -0.07700
C587        C  0.13696821  0.39793697  0.79331814     0.62700
H588        H  0.20562329  0.40134406  0.78531465     0.13400
H589        H  0.19517384  0.49341378  0.73970965     0.13400
C590        C  0.26378436  0.49646901  0.73136798     0.62900
F591        F  0.14932417  0.38015617  0.80659743    -0.22200
F592        F  0.10073495  0.36666250  0.78424961    -0.19600
F593        F  0.12989371  0.42269878  0.80465260    -0.19200
F594        F  0.26909438  0.47110933  0.71942472    -0.19300
F595        F  0.30080468  0.52663399  0.74026985    -0.19600
F596        F  0.25213636  0.51570794  0.71867235    -0.22300
C597        C  0.31577096  0.35712100  0.85585392    -0.05100
C598        C  0.33473509  0.39159016  0.86894737     0.00800
C599        C  0.35615221  0.43134662  0.86025312    -0.07800
C600        C  0.35662023  0.43479283  0.83889987    -0.05100
C601        C  0.33590331  0.40027980  0.82578776     0.00800
C602        C  0.31549939  0.36051455  0.83448494    -0.07700
C603        C  0.29221770  0.32158595  0.82162077     0.62700
H604        H  0.29985523  0.32690377  0.86261870     0.13400
H605        H  0.37273216  0.46512420  0.83227115     0.13400
C606        C  0.37722255  0.47012010  0.87325376     0.62900
F607        F  0.27471962  0.28647247  0.83333156    -0.22200
F608        F  0.31872400  0.32161404  0.80794422    -0.19600
F609        F  0.26084798  0.31937416  0.81120648    -0.19200
F610        F  0.40828824  0.47346499  0.88454601    -0.19300
F611        F  0.34889636  0.46873114  0.88615827    -0.19600
F612        F  0.39468486  0.50528952  0.86160039    -0.22300
C613        C  0.20009565  0.40948570  0.59066062    -0.05100
C614        C  0.23535433  0.43976484  0.60139944     0.00800
C615        C  0.23567635  0.47114004  0.61193639    -0.07800
C616        C  0.20075826  0.47164555  0.61067988    -0.05100
C617        C  0.16602800  0.44221141  0.59929597     0.00800
C618        C  0.16535469  0.41016396  0.58921798    -0.07700
C619        C  0.12922580  0.37769140  0.57627164     0.62700
H620        H  0.20043269  0.38569627  0.58280835     0.13400
H621        H  0.20052338  0.49556324  0.61845861     0.13400
C622        C  0.27230657  0.50388131  0.62451984     0.62900
F623        F  0.13756083  0.35271200  0.56607504    -0.22200
F624        F  0.12018227  0.39643941  0.56181606    -0.19600
F625        F  0.09522529  0.35277932  0.58846688    -0.19200
F626        F  0.30474440  0.53041716  0.61179229    -0.19300
F627        F  0.28412226  0.48564702  0.63780935    -0.19600
F628        F  0.26323758  0.52699098  0.63598733    -0.22300
C629        C  0.37240706  0.40724364  0.66824384    -0.05100
C630        C  0.33576090  0.38890602  0.65712230     0.00800
C631        C  0.29765825  0.36606034  0.66759697    -0.07800
C632        C  0.29791378  0.36543733  0.68906359    -0.05100
C633        C  0.33473824  0.38718144  0.70032629     0.00800
C634        C  0.37279222  0.40689461  0.68969111    -0.07700
C635        C  0.41392322  0.42993459  0.70066845     0.62700
H636        H  0.40115036  0.42422688  0.65990209     0.13400
H637        H  0.26909876  0.35007631  0.69730640     0.13400
C638        C  0.25697982  0.34507331  0.65631974     0.62900
F639        F  0.44667417  0.44658370  0.68724992    -0.22200
F640        F  0.41556747  0.40326085  0.71329822    -0.19600
F641        F  0.41893288  0.46190410  0.71202530    -0.19200
F642        F  0.25301316  0.31586185  0.64306483    -0.19300
F643        F  0.25540776  0.37382750  0.64547731    -0.19600
F644        F  0.22371174  0.32542704  0.66946217    -0.22300
C645        C  0.31682482  0.39153791  0.49788597    -0.05100
C646        C  0.34623491  0.38443635  0.49222169     0.00800
C647        C  0.36491701  0.37528795  0.50759471    -0.07800
C648        C  0.35740938  0.37905612  0.52814032    -0.05100
C649        C  0.33135442  0.39055783  0.53374250     0.00800
C650        C  0.30846649  0.39410683  0.51842894    -0.07700
C651        C  0.27538642  0.40069554  0.52348248     0.62700
H652        H  0.30161250  0.39700101  0.48607930     0.13400
H653        H  0.37372753  0.37517554  0.53999331     0.13400
C654        C  0.39263672  0.36156282  0.50265553     0.62900
F655        F  0.24982456  0.39156989  0.50698379    -0.22200
F656        F  0.29328908  0.44125201  0.52892052    -0.19600
F657        F  0.25117609  0.37529905  0.53931608    -0.19200
F658        F  0.43035300  0.39451980  0.49576605    -0.19300
F659        F  0.37445057  0.33099017  0.48793467    -0.19600
F660        F  0.39950451  0.34576664  0.51960376    -0.22300
C661        C  0.32870529  0.41276987  0.33796458    -0.05100
C662        C  0.31702833  0.37655783  0.32752952     0.00800
C663        C  0.30103262  0.34004749  0.33896477    -0.07800
C664        C  0.30470329  0.34323998  0.36031463    -0.05100
C665        C  0.32255723  0.38101118  0.37044852     0.00800
C666        C  0.33207893  0.41580402  0.35931420    -0.07700
C667        C  0.34914657  0.45687530  0.36964171     0.62700
H668        H  0.33889403  0.44000162  0.32918436     0.13400
H669        H  0.29662819  0.31669521  0.36918823     0.13400
C670        C  0.28271483  0.29832488  0.32905116     0.62900
F671        F  0.35598378  0.48649556  0.35593046    -0.22200
F672        F  0.38615230  0.47083037  0.37899150    -0.19600
F673        F  0.32142999  0.45240827  0.38404072    -0.19200
F674        F  0.31351484  0.29672051  0.32041825    -0.19300
F675        F  0.25466364  0.29136188  0.31426587    -0.19600
F676        F  0.26207665  0.26678458  0.34306372    -0.22300
C677        C  0.16324604  0.39972150  0.10197443    -0.05100
C678        C  0.12867534  0.36959951  0.09070871     0.00800
C679        C  0.12940692  0.33838968  0.08056823    -0.07800
C680        C  0.16495944  0.33876642  0.08222579    -0.05100
C681        C  0.19956247  0.36921145  0.09339695     0.00800
C682        C  0.19865441  0.40022356  0.10360115    -0.07700
C683        C  0.23422785  0.43340732  0.11661490     0.62700
H684        H  0.16226969  0.42316859  0.10976318     0.13400
H685        H  0.16615458  0.31529276  0.07460802     0.13400
C686        C  0.09362079  0.30537712  0.06770155     0.62900
F687        F  0.22422117  0.45668551  0.12720736    -0.22200
F688        F  0.26761652  0.45985827  0.10435683    -0.19600
F689        F  0.24504113  0.41560257  0.13076539    -0.19200
F690        F  0.08369913  0.32345136  0.05325678    -0.19300
F691        F  0.05991107  0.27999012  0.07998504    -0.19600
F692        F  0.10289416  0.28109372  0.05753656    -0.22300
C693        C  0.37646237  0.40156659  0.02623637    -0.05100
C694        C  0.35509733  0.41361860  0.03758805     0.00800
C695        C  0.33575357  0.42939905  0.02736048    -0.07800
C696        C  0.33484644  0.42861484  0.00591637    -0.05100
C697        C  0.35297683  0.41301893  0.99457786     0.00800
C698        C  0.37600567  0.40132521  0.00475430    -0.07700
C699        C  0.39708186  0.38550437  0.99296038     0.62700
H700        H  0.39083848  0.38935071  0.03432412     0.13400
H701        H  0.31731215  0.43733444  0.99784709     0.13400
C702        C  0.31334572  0.44387518  0.03910950     0.62900
F703        F  0.41935180  0.37743776  0.00561351    -0.22200
F704        F  0.42394667  0.41464638  0.97894679    -0.19600
F705        F  0.36802615  0.34956589  0.98282724    -0.19200
F706        F  0.34056283  0.47556846  0.05211455    -0.19300
F707        F  0.28168724  0.41180808  0.05035352    -0.19600
F708        F  0.29665535  0.45814816  0.02631454    -0.22300
C709        C  0.30372010  0.38543249  0.17544544    -0.05100
C710        C  0.33718754  0.39906222  0.16221149     0.00800
C711        C  0.37677348  0.41666144  0.17067740    -0.07800
C712        C  0.38061414  0.41720122  0.19196611    -0.05100
C713        C  0.34670013  0.40091352  0.20517239     0.00800
C714        C  0.30768992  0.38636961  0.19680689    -0.07700
C715        C  0.27022071  0.37133717  0.21007676     0.62700
H716        H  0.27382522  0.37305200  0.16883272     0.13400
H717        H  0.41057557  0.42966614  0.19849504     0.13400
C718        C  0.41477870  0.43347277  0.15755720     0.62900
F719        F  0.23574091  0.35912759  0.19864421    -0.22200
F720        F  0.27787522  0.40272690  0.22289860    -0.19600
F721        F  0.26123216  0.33800720  0.22147845    -0.19200
F722        F  0.42144046  0.46555068  0.14586346    -0.19300
F723        F  0.40953456  0.40270177  0.14505960    -0.19600
F724        F  0.44978157  0.44838726  0.16911835    -0.22300
C725        C  0.27554940  0.18364907  0.94526996    -0.05100
C726        C  0.31430781  0.19059949  0.94344819     0.00800
C727        C  0.34954753  0.23131068  0.94025791    -0.07800
C728        C  0.34425338  0.26317691  0.93902290    -0.05100
C729        C  0.30536819  0.25613207  0.94032169     0.00800
C730        C  0.27009693  0.21536541  0.94345060    -0.07700
C731        C  0.22665943  0.20446392  0.94444426     0.62700
H732        H  0.24891295  0.15252004  0.94760767     0.13400
H733        H  0.37094281  0.29422382  0.93658184     0.13400
C734        C  0.39267241  0.24178103  0.93792305     0.62900
F735        F  0.19754093  0.16294896  0.94784348    -0.22200
F736        F  0.21706744  0.21410958  0.92616343    -0.19600
F737        F  0.22357053  0.22576627  0.96018811    -0.19200
F738        F  0.39478785  0.22365757  0.92038828    -0.19300
F739        F  0.40242549  0.22806524  0.95466355    -0.19600
F740        F  0.42226207  0.28371603  0.93639970    -0.22300
C741        C  0.38248393  0.08319126  0.85106252    -0.05100
C742        C  0.35667965  0.08601973  0.83765633     0.00800
C743        C  0.32697033  0.09125289  0.84586326    -0.07800
C744        C  0.32399211  0.09288885  0.86716043    -0.05100
C745        C  0.34857153  0.08831598  0.88062449     0.00800
C746        C  0.37882567  0.08385214  0.87241616    -0.07700
C747        C  0.40582311  0.07778089  0.88589780     0.62700
H748        H  0.40501320  0.07917675  0.84458960     0.13400
H749        H  0.30132485  0.09679774  0.87352427     0.13400
C750        C  0.29691358  0.09288614  0.83243125     0.62900
F751        F  0.43152172  0.07188997  0.87464179    -0.22200
F752        F  0.38141359  0.04350230  0.89797047    -0.19600
F753        F  0.43029550  0.11207920  0.89807648    -0.19200
F754        F  0.27486639  0.05770130  0.82055221    -0.19300
F755        F  0.31811950  0.12709555  0.82005737    -0.19600
F756        F  0.26896076  0.09536350  0.84372300    -0.22300
C757        C  0.32069411  0.08214994  0.70287002    -0.05100
C758        C  0.35752030  0.10308517  0.71408217     0.00800
C759        C  0.39535425  0.12897055  0.70363286    -0.07800
C760        C  0.39536773  0.12715205  0.68218740    -0.05100
C761        C  0.35879417  0.10206840  0.67109684     0.00800
C762        C  0.32063436  0.08175595  0.68143180    -0.07700
C763        C  0.28013588  0.05731232  0.66993463     0.62700
H764        H  0.29190051  0.06352226  0.71106898     0.13400
H765        H  0.42422268  0.14318705  0.67394816     0.13400
C766        C  0.43568605  0.15646945  0.71495760     0.62900
F767        F  0.24668928  0.04037456  0.68290566    -0.22200
F768        F  0.27685007  0.02562232  0.65911542    -0.19600
F769        F  0.27834356  0.08297479  0.65659197    -0.19200
F770        F  0.44395748  0.13296386  0.72636798    -0.19300
F771        F  0.43314895  0.18276712  0.72766666    -0.19600
F772        F  0.46832615  0.18023962  0.70177980    -0.22300
C773        C  0.36489078  0.26330686  0.44261000    -0.05100
C774        C  0.39636025  0.29754820  0.43175115     0.00800
C775        C  0.42928287  0.29711556  0.42370212    -0.07800
C776        C  0.42865299  0.26173713  0.42650657    -0.05100
C777        C  0.39677800  0.22731584  0.43712183     0.00800
C778        C  0.36456598  0.22830839  0.44567739    -0.07700
C779        C  0.33031351  0.19334907  0.45842974     0.62700
H780        H  0.34027886  0.26422394  0.44892003     0.13400
H781        H  0.45311883  0.26055179  0.42021107     0.13400
C782        C  0.46461427  0.33313315  0.41194811     0.62900
F783        F  0.30660105  0.20404629  0.46792537    -0.22200
F784        F  0.34688205  0.18292185  0.47348841    -0.19600
F785        F  0.30460765  0.15953578  0.44616722    -0.19200
F786        F  0.48703334  0.36694147  0.42466545    -0.19300
F787        F  0.44943200  0.34258086  0.39572840    -0.19600
F788        F  0.49130845  0.32452466  0.40422652    -0.22300
C789        C  0.34006667  0.05451413  0.51264103    -0.05100
C790        C  0.36894020  0.09512727  0.50628987     0.00800
C791        C  0.38847040  0.12691756  0.52128040    -0.07800
C792        C  0.38107482  0.11617390  0.54198258    -0.05100
C793        C  0.35477590  0.07524445  0.54837141     0.00800
C794        C  0.33224823  0.04381965  0.53339695    -0.07700
C795        C  0.30020992  0.99907314  0.53892847     0.62700
H796        H  0.32459330  0.03067749  0.50113369     0.13400
H797        H  0.39736197  0.13996051  0.55344820     0.13400
C798        C  0.41717837  0.17220151  0.51584260     0.62900
F799        F  0.27779159  0.97569317  0.52212197    -0.22200
F800        F  0.27270649  0.99646141  0.55290942    -0.19600
F801        F  0.31922883  0.98206223  0.54701208    -0.19200
F802        F  0.39862260  0.18209001  0.50168244    -0.19300
F803        F  0.45359126  0.18061899  0.50805049    -0.19600
F804        F  0.42680221  0.19744121  0.53263223    -0.22300
C805        C  0.34791560  0.25122373  0.27195117    -0.05100
C806        C  0.38509953  0.29039174  0.27328222     0.00800
C807        C  0.42230626  0.29380212  0.27608750    -0.07800
C808        C  0.42063022  0.25753812  0.27711007    -0.05100
C809        C  0.38333059  0.21819483  0.27579218     0.00800
C810        C  0.34600771  0.21496980  0.27328139    -0.07700
C811        C  0.30399925  0.17395200  0.27200960     0.62700
H812        H  0.31978870  0.24918966  0.27009519     0.13400
H813        H  0.44881743  0.25979467  0.27917585     0.13400
C814        C  0.46372643  0.33519447  0.27784646     0.62900
F815        F  0.27258618  0.17876683  0.26900553    -0.22200
F816        F  0.29581191  0.15262336  0.28999833    -0.19600
F817        F  0.30311748  0.15104947  0.25583224    -0.19200
F818        F  0.46483854  0.35500904  0.29547074    -0.19300
F819        F  0.47003001  0.35917977  0.26113875    -0.19600
F820        F  0.49599799  0.33117260  0.27868205    -0.22300
C821        C  0.32827416  0.09150422  0.35066487    -0.05100
C822        C  0.33904881  0.06835907  0.34001527     0.00800
C823        C  0.34633362  0.04255949  0.35095984    -0.07800
C824        C  0.34727959  0.04462339  0.37243351    -0.05100
C825        C  0.34204419  0.07215727  0.38285198     0.00800
C826        C  0.32996971  0.09414181  0.37199766    -0.07700
C827        C  0.32122083  0.12212339  0.38288159     0.62700
H828        H  0.32217244  0.11055275  0.34204032     0.13400
H829        H  0.35640639  0.02806251  0.38109460     0.13400
C830        C  0.35683182  0.01603568  0.34006901     0.62900
F831        F  0.30578963  0.13716658  0.36972430    -0.22200
F832        F  0.35688188  0.15530077  0.39144830    -0.19600
F833        F  0.29247424  0.10043395  0.39806496    -0.19200
F834        F  0.39281970  0.04062292  0.32909690    -0.19300
F835        F  0.32524961  0.98919322  0.32695337    -0.19600
F836        F  0.36228078  0.99298223  0.35357033    -0.22300
C837        C  0.28245371  0.22470459  0.08972243    -0.05100
C838        C  0.30635200  0.25704025  0.10354561     0.00800
C839        C  0.32861371  0.25290640  0.11892987    -0.07800
C840        C  0.32868975  0.21766799  0.11883433    -0.05100
C841        C  0.30570047  0.18572202  0.10465167     0.00800
C842        C  0.28108788  0.18863041  0.09015107    -0.07700
C843        C  0.25367532  0.15431960  0.07506841     0.62700
H844        H  0.26487073  0.22807998  0.07843232     0.13400
H845        H  0.34653163  0.21461475  0.13010922     0.13400
C846        C  0.35083210  0.28446277  0.13589960     0.62900
F847        F  0.23528202  0.16534555  0.06138336    -0.22200
F848        F  0.22267359  0.12005241  0.08545045    -0.19600
F849        F  0.27657192  0.14448378  0.06402361    -0.19200
F850        F  0.32514079  0.29372575  0.14431503    -0.19300
F851        F  0.38571162  0.31985031  0.12830294    -0.19600
F852        F  0.36272939  0.26997846  0.15139318    -0.22300
C853        C  0.35308169  0.05511313  0.03729699    -0.05100
C854        C  0.36930382  0.09215675  0.04810944     0.00800
C855        C  0.38976230  0.12955540  0.03693745    -0.07800
C856        C  0.38693181  0.12753050  0.01551341    -0.05100
C857        C  0.36599875  0.08995891  0.00496691     0.00800
C858        C  0.35101657  0.05334677  0.01585462    -0.07700
C859        C  0.32992064  0.01219900  0.00496707     0.62700
H860        H  0.33895240  0.02681247  0.04579430     0.13400
H861        H  0.39875767  0.15529632  0.00683377     0.13400
C862        C  0.41253740  0.17144294  0.04723127     0.62900
F863        F  0.31811148  0.98041128  0.01831321    -0.22200
F864        F  0.35658442  0.01350999  0.99090315    -0.19600
F865        F  0.29514271  0.00358884  0.99505079    -0.19200
F866        F  0.43929543  0.17435534  0.06170098    -0.19300
F867        F  0.38482396  0.17721065  0.05633786    -0.19600
F868        F  0.43562201  0.20297452  0.03345073    -0.22300
C869        C  0.30751462  0.05903928  0.18529867    -0.05100
C870        C  0.34166586  0.07639649  0.17212266     0.00800
C871        C  0.38101095  0.09279314  0.18055600    -0.07800
C872        C  0.38470079  0.09224098  0.20181743    -0.05100
C873        C  0.35109739  0.07732414  0.21509514     0.00800
C874        C  0.31138410  0.05937817  0.20666194    -0.07700
C875        C  0.27346236  0.04230983  0.21989203     0.62700
H876        H  0.27750737  0.04606970  0.17868258     0.13400
H877        H  0.41472806  0.10500131  0.20835240     0.13400
C878        C  0.41948157  0.11275030  0.16749759     0.62900
F879        F  0.23816372  0.02620677  0.20838903    -0.22200
F880        F  0.27823769  0.07328268  0.23204539    -0.19600
F881        F  0.26766894  0.01107880  0.23199257    -0.19200
F882        F  0.42378574  0.14432160  0.15629003    -0.19300
F883        F  0.41676976  0.08380091  0.15452821    -0.19600
F884        F  0.45471411  0.12929334  0.17910258    -0.22300
C885        C  0.50016828  0.02027534  0.75851062    -0.05100
C886        C  0.53650502  0.05248618  0.76786042     0.00800
C887        C  0.53773647  0.08611563  0.77637811    -0.07800
C888        C  0.50188563  0.08523837  0.77572322    -0.05100
C889        C  0.46520144  0.05241736  0.76686592     0.00800
C890        C  0.46458063  0.01974687  0.75757052    -0.07700
C891        C  0.42723368  0.98489222  0.74617307     0.62700
H892        H  0.49984502  0.99518215  0.75181466     0.13400
H893        H  0.50204079  0.11012485  0.78256677     0.13400
C894        C  0.57601158  0.12240920  0.78658985     0.62900
F895        F  0.43578596  0.96020623  0.73585252    -0.22200
F896        F  0.41449391  0.00086818  0.73197500    -0.19600
F897        F  0.39564230  0.96022935  0.75967611    -0.19200
F898        F  0.60716132  0.14363849  0.77240613    -0.19300
F899        F  0.58862994  0.10864787  0.80206909    -0.19600
F900        F  0.56907757  0.14985586  0.79504061    -0.22300
C901        C  0.88081859  0.26101120  0.95622592    -0.05100
C902        C  0.91271942  0.26216876  0.94627547     0.00800
C903        C  0.90576587  0.22531069  0.93859893    -0.07800
C904        C  0.86645045  0.18856566  0.94080428    -0.05100
C905        C  0.83383802  0.18770492  0.94973916     0.00800
C906        C  0.84127987  0.22435947  0.95814678    -0.07700
C907        C  0.80808563  0.22530007  0.96905786     0.62700
H908        H  0.88683332  0.28952084  0.96198275     0.13400
H909        H  0.86036677  0.16031789  0.93459702     0.13400
C910        C  0.93866525  0.22487373  0.92700349     0.62900
F911        F  0.82398727  0.26267054  0.97867192    -0.22200
F912        F  0.78952362  0.19496992  0.98373603    -0.19600
F913        F  0.77892118  0.21918543  0.95523264    -0.19200
F914        F  0.97072674  0.23546654  0.93994696    -0.19300
F915        F  0.95327788  0.25245107  0.91104988    -0.19600
F916        F  0.92366294  0.18649067  0.91887962    -0.22300
C917        C  0.71593485  0.09842750  0.86490366    -0.05100
C918        C  0.68218176  0.07549498  0.87817526     0.00800
C919        C  0.64195862  0.05163323  0.86982155    -0.07800
C920        C  0.63749495  0.05000225  0.84850262    -0.05100
C921        C  0.67138304  0.07115587  0.83512995     0.00800
C922        C  0.71147517  0.09693358  0.84356814    -0.07700
C923        C  0.74966768  0.12234809  0.83041372     0.62700
H924        H  0.74645521  0.11726983  0.87144865     0.13400
H925        H  0.60689842  0.03120769  0.84206517     0.13400
C926        C  0.60374523  0.02694069  0.88305061     0.62900
F927        F  0.78519252  0.14531511  0.84195475    -0.22200
F928        F  0.74680843  0.14942660  0.81877299    -0.19600
F929        F  0.75359839  0.09677772  0.81786530    -0.19200
F930        F  0.60143800  0.05311171  0.89596390    -0.19300
F931        F  0.60519170  0.99857793  0.89433067    -0.19600
F932        F  0.56798634  0.00557386  0.87160556    -0.22300
C933        C  0.53601917  0.07166124  0.61210824    -0.05100
C934        C  0.52764657  0.03224662  0.61055512     0.00800
C935        C  0.48602742  0.99738390  0.60968003    -0.07800
C936        C  0.45482146  0.00384625  0.60934068    -0.05100
C937        C  0.46334260  0.04332063  0.61074105     0.00800
C938        C  0.50474891  0.07792788  0.61266699    -0.07700
C939        C  0.51637829  0.12124803  0.61597549     0.62700
H940        H  0.56770997  0.09802534  0.61312021     0.13400
H941        H  0.42305032  0.97766980  0.60815515     0.13400
C942        C  0.47391885  0.95349776  0.60940856     0.62900
F943        F  0.55782279  0.14897699  0.62024871    -0.22200
F944        F  0.49463293  0.12178105  0.63230588    -0.19600
F945        F  0.50780067  0.13452126  0.59863493    -0.19200
F946        F  0.48766198  0.94619591  0.62701612    -0.19300
F947        F  0.49075170  0.94731173  0.59258326    -0.19600
F948        F  0.43169257  0.92481055  0.60853397    -0.22300
C949        C  0.67895730  0.10433780  0.67662126    -0.05100
C950        C  0.68952585  0.08021007  0.66683335     0.00800
C951        C  0.70470339  0.06185272  0.67846715    -0.07800
C952        C  0.70407006  0.06409814  0.69983011    -0.05100
C953        C  0.68897415  0.08418987  0.70970111     0.00800
C954        C  0.67810484  0.10637876  0.69805968    -0.07700
C955        C  0.66202340  0.12875302  0.70826149     0.62700
H956        H  0.66731025  0.11801761  0.66744017     0.13400
H957        H  0.71252323  0.04757005  0.70902456     0.13400
C958        C  0.72065390  0.03926526  0.66827131     0.62900
F959        F  0.65407361  0.14924698  0.69429592    -0.22200
F960        F  0.69088261  0.15735133  0.72196020    -0.19600
F961        F  0.62590355  0.10091923  0.71852066    -0.19200
F962        F  0.75278821  0.06594882  0.65542971    -0.19300
F963        F  0.68990301  0.00616576  0.65707089    -0.19600
F964        F  0.73497015  0.02456996  0.68234703    -0.22300
C965        C  0.79415813  0.24886009  0.41770130    -0.05100
C966        C  0.79454457  0.21693503  0.42646539     0.00800
C967        C  0.83266895  0.22466648  0.43257704    -0.07800
C968        C  0.86851551  0.26468948  0.43060489    -0.05100
C969        C  0.86774530  0.29683435  0.42265216     0.00800
C970        C  0.83025197  0.28868442  0.41539685    -0.07700
C971        C  0.82820765  0.32138088  0.40491313     0.62700
H972        H  0.76509987  0.24246860  0.41271952     0.13400
H973        H  0.89763263  0.27149284  0.43577315     0.13400
C974        C  0.83603620  0.19158148  0.44154366     0.62900
F975        F  0.79082689  0.30461699  0.39527283    -0.22200
F976        F  0.85872457  0.34110403  0.39028689    -0.19600
F977        F  0.83325764  0.34978505  0.41908133    -0.19200
F978        F  0.82456870  0.16134326  0.42709988    -0.19300
F979        F  0.81100798  0.17457293  0.45849344    -0.19600
F980        F  0.87578945  0.20700945  0.44756180    -0.22300
C981        C  0.57955089  0.14423156  0.44216259    -0.05100
C982        C  0.57256960  0.10742437  0.43500485     0.00800
C983        C  0.53269107  0.07522996  0.42819373    -0.07800
C984        C  0.50105833  0.08100477  0.42929627    -0.05100
C985        C  0.50779014  0.11753725  0.43683340     0.00800
C986        C  0.54789063  0.14996564  0.44335702    -0.07700
C987        C  0.55751729  0.19011148  0.45203648     0.62700
H988        H  0.61023106  0.16849729  0.44717261     0.13400
H989        H  0.47044446  0.05668158  0.42423815     0.13400
C990        C  0.52341243  0.03536039  0.41926846     0.62900
F991        F  0.59725303  0.21501213  0.45953479    -0.22200
F992        F  0.53100627  0.18218834  0.46792069    -0.19600
F993        F  0.55349239  0.21165027  0.43696047    -0.19200
F994        F  0.52722507  0.01334211  0.43413719    -0.19300
F995        F  0.55034362  0.04396370  0.40348346    -0.19600
F996        F  0.48381190  0.01051692  0.41160188    -0.22300
C997        C  0.70433930  0.08992524  0.51188630    -0.05100
C998        C  0.67023633  0.06438974  0.49915455     0.00800
C999        C  0.63196347  0.03394093  0.50811604    -0.07800
C1000       C  0.62961867  0.02963921  0.52942360    -0.05100
C1001       C  0.66345259  0.05555167  0.54227996     0.00800
C1002       C  0.70168003  0.08643885  0.53332081    -0.07700
C1003       C  0.73947587  0.11590005  0.54610336     0.62700
H1004       H  0.73314466  0.11357845  0.50482697     0.13400
H1005       H  0.60043715  0.00636795  0.53628743     0.13400
C1006       C  0.59301210  0.00766979  0.49550251     0.62900
F1007       F  0.77381894  0.14161521  0.53419760    -0.22200
F1008       F  0.74817498  0.09402163  0.55862139    -0.19600
F1009       F  0.73253943  0.14033854  0.55780665    -0.19200
F1010       F  0.59668001  0.98252084  0.48250465    -0.19300
F1011       F  0.58646057  0.03270857  0.48429193    -0.19600
F1012       F  0.55860937  0.98277123  0.50752961    -0.22300
C1013       C  0.81717759  0.23165516  0.25363241    -0.05100
C1014       C  0.78923683  0.22599893  0.26868117     0.00800
C1015       C  0.79988868  0.25895570  0.28199353    -0.07800
C1016       C  0.83808780  0.29683689  0.27936521    -0.05100
C1017       C  0.86602326  0.30251796  0.26430208     0.00800
C1018       C  0.85548305  0.26951038  0.25108420    -0.07700
C1019       C  0.88376601  0.27429343  0.23399747     0.62700
H1020       H  0.80851434  0.20607365  0.24367603     0.13400
H1021       H  0.84677674  0.32237965  0.28935882     0.13400
C1022       C  0.77208383  0.25402271  0.29940990     0.62900
F1023       F  0.86480286  0.24029683  0.22124158    -0.22200
F1024       F  0.91834006  0.27911308  0.24207215    -0.19600
F1025       F  0.89536144  0.30819815  0.22232480    -0.19200
F1026       F  0.76149643  0.22046590  0.31111434    -0.19300
F1027       F  0.73688442  0.24853013  0.29179780    -0.19600
F1028       F  0.79115177  0.28820609  0.31205250    -0.22300
C1029       C  0.53079128  0.07926198  0.26833277    -0.05100
C1030       C  0.56464410  0.10684750  0.28068419     0.00800
C1031       C  0.56239157  0.13390468  0.29386512    -0.07800
C1032       C  0.52649740  0.13300389  0.29365893    -0.05100
C1033       C  0.49295776  0.10581561  0.28104702     0.00800
C1034       C  0.49496979  0.07828205  0.26813874    -0.07700
C1035       C  0.46033866  0.04898352  0.25358289     0.62700
H1036       H  0.53293064  0.05877145  0.25837961     0.13400
H1037       H  0.52435782  0.15376588  0.30339093     0.13400
C1038       C  0.59718821  0.16325483  0.30828506     0.62900
F1039       F  0.47118548  0.02906239  0.24068394    -0.22200
F1040       F  0.45035551  0.07052715  0.24162106    -0.19600
F1041       F  0.42616412  0.01924463  0.26449078    -0.19200
F1042       F  0.63048296  0.19407932  0.29728796    -0.19300
F1043       F  0.60876656  0.14216768  0.31949010    -0.19600
F1044       F  0.58571303  0.18162137  0.32188940    -0.22300
C1045       C  0.70898357  0.07074221  0.34146630    -0.05100
C1046       C  0.67215375  0.05537706  0.33093940     0.00800
C1047       C  0.63467561  0.03496190  0.34188980    -0.07800
C1048       C  0.63589502  0.03370615  0.36327416    -0.05100
C1049       C  0.67322415  0.05324842  0.37404754     0.00800
C1050       C  0.71040833  0.07027893  0.36291368    -0.07700
C1051       C  0.75190791  0.09113400  0.37336195     0.62700
H1052       H  0.73725020  0.08622352  0.33274090     0.13400
H1053       H  0.60766248  0.02016815  0.37188079     0.13400
C1054       C  0.59395546  0.01783794  0.33121775     0.62900
F1055       F  0.78342201  0.10375356  0.35955925    -0.22200
F1056       F  0.75139615  0.06406879  0.38666611    -0.19600
F1057       F  0.76063397  0.12548187  0.38391477    -0.19200
F1058       F  0.58621876  0.98769107  0.31747939    -0.19300
F1059       F  0.59540991  0.04895127  0.32099915    -0.19600
F1060       F  0.56141142  0.00051932  0.34477171    -0.22300
C1061       C  0.89902412  0.23448777  0.08289959    -0.05100
C1062       C  0.90498724  0.26739166  0.09443356     0.00800
C1063       C  0.87207123  0.26084239  0.10662646    -0.07800
C1064       C  0.83482730  0.22139812  0.10688456    -0.05100
C1065       C  0.82936047  0.18833225  0.09577234     0.00800
C1066       C  0.86188576  0.19499556  0.08333952    -0.07700
C1067       C  0.85778484  0.16097998  0.07044841     0.62700
H1068       H  0.92413701  0.23982043  0.07359028     0.13400
H1069       H  0.80961809  0.21583213  0.11619945     0.13400
C1070       C  0.87585701  0.29454666  0.11972469     0.62900
F1071       F  0.89104484  0.17570470  0.05755326    -0.22200
F1072       F  0.82278003  0.14259112  0.05852707    -0.19600
F1073       F  0.85555601  0.13195045  0.08295858    -0.19200
F1074       F  0.88114663  0.32531584  0.10741389    -0.19300
F1075       F  0.90891230  0.31064968  0.13285238    -0.19600
F1076       F  0.84113051  0.28007817  0.13148238    -0.22300
C1077       C  0.63602186  0.02890282  0.03341052    -0.05100
C1078       C  0.66041084  0.06661670  0.04377277     0.00800
C1079       C  0.67987308  0.10375058  0.03259326    -0.07800
C1080       C  0.67869826  0.10158050  0.01115551    -0.05100
C1081       C  0.65909934  0.06374136  0.00088194     0.00800
C1082       C  0.63448504  0.02686204  0.01203685    -0.07700
C1083       C  0.60754766  0.98545430  0.00148489     0.62700
H1084       H  0.62047538  0.00074756  0.04214209     0.13400
H1085       H  0.69660919  0.12953283  0.00233009     0.13400
C1086       C  0.70476281  0.14544044  0.04307287     0.62900
F1087       F  0.57821881  0.95581607  0.01462667    -0.22200
F1088       F  0.63120380  0.97267231  0.99438694    -0.19600
F1089       F  0.58717881  0.98838932  0.98532334    -0.19200
F1090       F  0.73776049  0.15041335  0.05323186    -0.19300
F1091       F  0.68010736  0.14831221  0.05681014    -0.19600
F1092       F  0.71996005  0.17734085  0.02934073    -0.22300
C1093       C  0.64859984  0.06795791  0.17339788    -0.05100
C1094       C  0.68184760  0.06701890  0.16714743     0.00800
C1095       C  0.70633528  0.06500776  0.18221262    -0.07800
C1096       C  0.69864037  0.06762165  0.20281992    -0.05100
C1097       C  0.66741638  0.07159787  0.20897169     0.00800
C1098       C  0.64064562  0.06996382  0.19412886    -0.07700
C1099       C  0.60334337  0.06937309  0.19999508     0.62700
H1100       H  0.62945938  0.06834804  0.16186688     0.13400
H1101       H  0.71838360  0.06838138  0.21438777     0.13400
C1102       C  0.74046936  0.05992614  0.17697868     0.62900
F1103       F  0.57729254  0.05921136  0.18359346    -0.22200
F1104       F  0.61561016  0.10765155  0.20703718    -0.19600
F1105       F  0.58122928  0.04042172  0.21501267    -0.19200
F1106       F  0.77321739  0.09550688  0.16821271    -0.19300
F1107       F  0.72576306  0.02711785  0.16372661    -0.19600
F1108       F  0.75516569  0.05211550  0.19406873    -0.22300
C1109       C  0.52631123  0.59870100  0.76342737    -0.05100
C1110       C  0.52494867  0.63263265  0.75969127     0.00800
C1111       C  0.48668362  0.62576936  0.75483925    -0.07800
C1112       C  0.45142880  0.58509339  0.75395786    -0.05100
C1113       C  0.45265533  0.55123045  0.75813543     0.00800
C1114       C  0.49091979  0.55808394  0.76298838    -0.07700
C1115       C  0.49486638  0.52333204  0.76826757     0.62700
H1116       H  0.55558761  0.60428633  0.76716327     0.13400
H1117       H  0.42210914  0.57946879  0.75027651     0.13400
C1118       C  0.48237013  0.66066651  0.75069556     0.62900
F1119       F  0.53461717  0.53769193  0.77373814    -0.22200
F1120       F  0.48419509  0.49766078  0.75159643    -0.19600
F1121       F  0.46955934  0.50123825  0.78455238    -0.19200
F1122       F  0.50866669  0.68510770  0.73516184    -0.19300
F1123       F  0.49144013  0.68400542  0.76816702    -0.19600
F1124       F  0.44284274  0.64641560  0.74484061    -0.22300
C1125       C  0.61066343  0.86136735  0.75772605    -0.05100
C1126       C  0.64180609  0.86259182  0.76849552     0.00800
C1127       C  0.67098008  0.89854176  0.77971639    -0.07800
C1128       C  0.66778911  0.93192222  0.77957743    -0.05100
C1129       C  0.63640743  0.93055981  0.76898432     0.00800
C1130       C  0.60728939  0.89464969  0.75772108    -0.07700
C1131       C  0.57305835  0.89122406  0.74549992     0.62700
H1132       H  0.58868941  0.83378737  0.74920452     0.13400
H1133       H  0.68983997  0.95954141  0.78804905     0.13400
C1134       C  0.70465074  0.90164217  0.79233078     0.62900
F1135       F  0.55144851  0.85554900  0.73392654    -0.22200
F1136       F  0.58934439  0.92411322  0.73233103    -0.19600
F1137       F  0.54549175  0.89075437  0.75857848    -0.19200
F1138       F  0.73230017  0.90129672  0.77967982    -0.19300
F1139       F  0.68747950  0.86898739  0.80570745    -0.19600
F1140       F  0.72644463  0.93753561  0.80372475    -0.22300
C1141       C  0.74261246  0.96384390  0.95205398    -0.05100
C1142       C  0.71475101  0.96406631  0.93909145     0.00800
C1143       C  0.69056822  0.93077369  0.92541667    -0.07800
C1144       C  0.69412492  0.89768395  0.92589314    -0.05100
C1145       C  0.72177133  0.89723618  0.93893975     0.00800
C1146       C  0.74710129  0.93129879  0.95210302    -0.07700
C1147       C  0.77869294  0.93379026  0.96619195     0.62700
H1148       H  0.76117832  0.98977552  0.96220359     0.13400
H1149       H  0.67543915  0.87180806  0.91573355     0.13400
C1150       C  0.66250733  0.93061989  0.90971450     0.62900
F1151       F  0.79738774  0.96822902  0.97866812    -0.22200
F1152       F  0.80914631  0.93604688  0.95473630    -0.19600
F1153       F  0.76004131  0.89957280  0.97858165    -0.19200
F1154       F  0.68461969  0.96612386  0.89824538    -0.19300
F1155       F  0.63024447  0.92826286  0.91929926    -0.19600
F1156       F  0.64590049  0.89747831  0.89647575    -0.22300
C1157       C  0.72022363  0.77832030  0.85903740    -0.05100
C1158       C  0.68695406  0.75511706  0.87256665     0.00800
C1159       C  0.64690941  0.72747554  0.86430360    -0.07800
C1160       C  0.64179514  0.72606417  0.84298600    -0.05100
C1161       C  0.67483474  0.75099709  0.82957348     0.00800
C1162       C  0.71506231  0.77699384  0.83776533    -0.07700
C1163       C  0.75247681  0.80436912  0.82439103     0.62700
H1164       H  0.75080563  0.79863011  0.86532923     0.13400
H1165       H  0.61128782  0.70579336  0.83658670     0.13400
C1166       C  0.60937255  0.70012006  0.87765618     0.62900
F1167       F  0.78821448  0.82836418  0.83567608    -0.22200
F1168       F  0.74740099  0.83056855  0.81329735    -0.19600
F1169       F  0.75762440  0.78031078  0.81131208    -0.19200
F1170       F  0.60325829  0.72409520  0.89027002    -0.19300
F1171       F  0.61495003  0.67481192  0.88925238    -0.19600
F1172       F  0.57390735  0.67515202  0.86630070    -0.22300
C1173       C  0.53263621  0.59647293  0.59687921    -0.05100
C1174       C  0.53255919  0.63105198  0.59292247     0.00800
C1175       C  0.49494044  0.62542835  0.58779942    -0.07800
C1176       C  0.45880811  0.58522407  0.58733497    -0.05100
C1177       C  0.45872339  0.55078965  0.59205630     0.00800
C1178       C  0.49640332  0.55640908  0.59685285    -0.07700
C1179       C  0.49864862  0.52094985  0.60290061     0.62700
H1180       H  0.56150311  0.60119175  0.60068963     0.13400
H1181       H  0.42986470  0.58041726  0.58358929     0.13400
C1182       C  0.49232188  0.66112684  0.58277216     0.62900
F1183       F  0.53802100  0.53421185  0.60848803    -0.22200
F1184       F  0.48693214  0.49401945  0.58670116    -0.19600
F1185       F  0.47307819  0.50056095  0.61936573    -0.19200
F1186       F  0.51975235  0.68456801  0.56738032    -0.19300
F1187       F  0.50123826  0.68527458  0.59990263    -0.19600
F1188       F  0.45342696  0.64784143  0.57623475    -0.22300
C1189       C  0.67301252  0.89020220  0.59630399    -0.05100
C1190       C  0.64064291  0.85304197  0.60486144     0.00800
C1191       C  0.60792260  0.85143048  0.61472694    -0.07800
C1192       C  0.60897156  0.88733732  0.61544942    -0.05100
C1193       C  0.64138375  0.92443722  0.60685688     0.00800
C1194       C  0.67404149  0.92599326  0.59698272    -0.07700
C1195       C  0.70937778  0.96461593  0.58662390     0.62700
H1196       H  0.69767862  0.89096181  0.58878696     0.13400
H1197       H  0.58428680  0.88673150  0.62285014     0.13400
C1198       C  0.57239428  0.81259631  0.62480276     0.62900
F1199       F  0.73482961  0.95749455  0.57600670    -0.22200
F1200       F  0.73316516  0.99465499  0.60106205    -0.19600
F1201       F  0.69407908  0.97882473  0.57286474    -0.19200
F1202       F  0.58741808  0.79834166  0.63869759    -0.19300
F1203       F  0.54920106  0.78272708  0.61019685    -0.19600
F1204       F  0.54648965  0.81941642  0.63517535    -0.22300
C1205       C  0.68069749  0.72485222  0.67264023    -0.05100
C1206       C  0.69112384  0.75944000  0.66131787     0.00800
C1207       C  0.70325581  0.79614750  0.67176940    -0.07800
C1208       C  0.70182132  0.79587299  0.69320063    -0.05100
C1209       C  0.68811539  0.76028873  0.70450736     0.00800
C1210       C  0.67900129  0.72453709  0.69412210    -0.07700
C1211       C  0.66485787  0.68533801  0.70543965     0.62700
H1212       H  0.67154337  0.69714910  0.66439776     0.13400
H1213       H  0.70900723  0.82301775  0.70133935     0.13400
C1214       C  0.71429234  0.83448565  0.66044875     0.62900
F1215       F  0.65735168  0.65429594  0.69236892    -0.22200
F1216       F  0.62886714  0.67147964  0.71589278    -0.19600
F1217       F  0.69498249  0.69288282  0.71901473    -0.19200
F1218       F  0.68135344  0.82563778  0.64865267    -0.19300
F1219       F  0.74809244  0.84828938  0.64812732    -0.19600
F1220       F  0.72399727  0.86620117  0.67359906    -0.22300
C1221       C  0.52578560  0.52939369  0.41134463    -0.05100
C1222       C  0.49350542  0.52431738  0.42302103     0.00800
C1223       C  0.49974949  0.55899805  0.43337205    -0.07800
C1224       C  0.53913098  0.59635777  0.43285969    -0.05100
C1225       C  0.57206555  0.60061403  0.42220528     0.00800
C1226       C  0.56482305  0.56692073  0.41048434    -0.07700
C1227       C  0.59751641  0.56995059  0.39692431     0.62700
H1228       H  0.52043437  0.50317854  0.40302411     0.13400
H1229       H  0.54476615  0.62255838  0.44131258     0.13400
C1230       C  0.46576851  0.55716922  0.44515616     0.62900
F1231       F  0.58147570  0.53558789  0.38458693    -0.22200
F1232       F  0.62801538  0.57337428  0.40875994    -0.19600
F1233       F  0.61434454  0.60376226  0.38434323    -0.19200
F1234       F  0.45158044  0.52863134  0.46062234    -0.19300
F1235       F  0.43382443  0.54653472  0.43210572    -0.19600
F1236       F  0.47919592  0.59465466  0.45395578    -0.22300
C1237       C  0.71439177  0.73611924  0.50780851    -0.05100
C1238       C  0.70108178  0.75323123  0.49405119     0.00800
C1239       C  0.68709484  0.77640740  0.50186094    -0.07800
C1240       C  0.68426701  0.77901708  0.52309403    -0.05100
C1241       C  0.69459653  0.75930866  0.53684005     0.00800
C1242       C  0.71162539  0.73883013  0.52910534    -0.07700
C1243       C  0.72562474  0.71877001  0.54301600     0.62700
H1244       H  0.72603230  0.71940548  0.50167437     0.13400
H1245       H  0.67249487  0.79564897  0.52916526     0.13400
C1246       C  0.67355685  0.79702364  0.48806804     0.62900
F1247       F  0.74124588  0.70068877  0.53219608    -0.22200
F1248       F  0.69283322  0.68846562  0.55447194    -0.19600
F1249       F  0.75634080  0.74813363  0.55580381    -0.19200
F1250       F  0.64200871  0.76804932  0.47550596    -0.19300
F1251       F  0.70648967  0.82652084  0.47641267    -0.19600
F1252       F  0.65935593  0.81633328  0.49899673    -0.22300
C1253       C  0.48979780  0.54697987  0.27389921    -0.05100
C1254       C  0.49133714  0.51277867  0.27609702     0.00800
C1255       C  0.52993139  0.51936929  0.27959921    -0.07800
C1256       C  0.56549774  0.55990933  0.27957444    -0.05100
C1257       C  0.56414916  0.59403478  0.27641690     0.00800
C1258       C  0.52529975  0.58754327  0.27408029    -0.07700
C1259       C  0.52057749  0.62257542  0.27143192     0.62700
H1260       H  0.46021783  0.54169348  0.27152378     0.13400
H1261       H  0.59511219  0.56512691  0.28169033     0.13400
C1262       C  0.53427890  0.48439101  0.28343532     0.62900
F1263       F  0.47973078  0.60874547  0.27050632    -0.22200
F1264       F  0.53922330  0.64321472  0.25351444    -0.19600
F1265       F  0.53817145  0.64941165  0.28778067    -0.19200
F1266       F  0.52378774  0.46045402  0.26608238    -0.19300
F1267       F  0.50911003  0.46055127  0.29941012    -0.19600
F1268       F  0.57414794  0.49859951  0.28856524    -0.22300
C1269       C  0.73788469  0.78701422  0.33770898    -0.05100
C1270       C  0.69941919  0.76922715  0.32842084     0.00800
C1271       C  0.66540574  0.75949676  0.34057323    -0.07800
C1272       C  0.66992490  0.76245201  0.36195846    -0.05100
C1273       C  0.70721765  0.77493423  0.37125372     0.00800
C1274       C  0.74266810  0.79131503  0.35892809    -0.07700
C1275       C  0.78585327  0.81250670  0.36732786     0.62700
H1276       H  0.76426368  0.79594578  0.32831999     0.13400
H1277       H  0.64326519  0.75110457  0.37154199     0.13400
C1278       C  0.62392769  0.74336228  0.33116436     0.62900
F1279       F  0.81151694  0.85007251  0.35782990    -0.22200
F1280       F  0.80004470  0.78858413  0.36333493    -0.19600
F1281       F  0.78795911  0.81992041  0.38804061    -0.19200
F1282       F  0.60964077  0.70756470  0.32037451    -0.19300
F1283       F  0.62788294  0.77264980  0.31817770    -0.19600
F1284       F  0.59484545  0.73481327  0.34576432    -0.22300
C1285       C  0.74253556  0.96242182  0.10793629    -0.05100
C1286       C  0.70666289  0.95875998  0.10212979     0.00800
C1287       C  0.67200459  0.92010665  0.09537959    -0.07800
C1288       C  0.67525154  0.88680846  0.09417050    -0.05100
C1289       C  0.71152873  0.89073778  0.09950481     0.00800
C1290       C  0.74559935  0.92903047  0.10699493    -0.07700
C1291       C  0.78483556  0.93490799  0.11439436     0.62700
H1292       H  0.76845813  0.99200673  0.11327476     0.13400
H1293       H  0.64931317  0.85724259  0.08882895     0.13400
C1294       C  0.63211665  0.91390753  0.08891590     0.62900
F1295       F  0.81137419  0.97293011  0.12353437    -0.22200
F1296       F  0.80526189  0.93217193  0.09810738    -0.19600
F1297       F  0.77549716  0.90522276  0.12863895    -0.19200
F1298       F  0.63997613  0.94175497  0.07388241    -0.19300
F1299       F  0.61412729  0.91930885  0.10548713    -0.19600
F1300       F  0.60398081  0.87480179  0.08122083    -0.22300
C1301       C  0.67364161  0.71184049  0.00429661    -0.05100
C1302       C  0.65700666  0.73079610  0.99496278     0.00800
C1303       C  0.63826933  0.74513713  0.00718785    -0.07800
C1304       C  0.64168024  0.74496757  0.02845951    -0.05100
C1305       C  0.66346634  0.73136132  0.03767096     0.00800
C1306       C  0.67830030  0.71294692  0.02558042    -0.07700
C1307       C  0.70117312  0.69692420  0.03505276     0.62700
H1308       H  0.68768940  0.70085397  0.99474072     0.13400
H1309       H  0.63020295  0.75881890  0.03784606     0.13400
C1310       C  0.61673357  0.76322555  0.99850770     0.62900
F1311       F  0.71059615  0.67773674  0.02081380    -0.22200
F1312       F  0.67709076  0.66871602  0.05001653    -0.19600
F1313       F  0.73757954  0.72907595  0.04359114    -0.19200
F1314       F  0.61076113  0.75739428  0.97770021    -0.19300
F1315       F  0.63981047  0.80491932  0.00270138    -0.19600
F1316       F  0.57851439  0.74463959  0.00752811    -0.22300
C1317       C  0.69646143  0.78514887  0.17538012    -0.05100
C1318       C  0.67732340  0.75103921  0.16208196     0.00800
C1319       C  0.65381469  0.71095329  0.17045027    -0.07800
C1320       C  0.65267096  0.70679620  0.19178698    -0.05100
C1321       C  0.67445012  0.74096427  0.20503710     0.00800
C1322       C  0.69576578  0.78104134  0.19667944    -0.07700
C1323       C  0.71916844  0.81953744  0.20986397     0.62700
H1324       H  0.71341144  0.81562205  0.16884685     0.13400
H1325       H  0.63563332  0.67630582  0.19830038     0.13400
C1326       C  0.63156191  0.67262387  0.15712111     0.62900
F1327       F  0.73814970  0.85510533  0.19841499    -0.22200
F1328       F  0.74941819  0.82049613  0.22073170    -0.19600
F1329       F  0.69232233  0.81987698  0.22314555    -0.19200
F1330       F  0.65962435  0.67208061  0.14489154    -0.19300
F1331       F  0.60285128  0.67219392  0.14510371    -0.19600
F1332       F  0.61089330  0.63693231  0.16850786    -0.22300
C1333       C  0.19410647  0.86092938  0.76551199    -0.05100
C1334       C  0.16136683  0.85685021  0.77624957     0.00800
C1335       C  0.16731410  0.89204951  0.78576896    -0.07800
C1336       C  0.20632326  0.92974644  0.78449972    -0.05100
C1337       C  0.23929476  0.93357081  0.77408772     0.00800
C1338       C  0.23291746  0.89858222  0.76408255    -0.07700
C1339       C  0.26626900  0.90047038  0.75162530     0.62700
H1340       H  0.18901926  0.83400218  0.75811295     0.13400
H1341       H  0.21148408  0.95672631  0.79187315     0.13400
C1342       C  0.13327796  0.89024242  0.79747347     0.62900
F1343       F  0.25144903  0.86408179  0.74123609    -0.22200
F1344       F  0.29742655  0.90766601  0.76433490    -0.19600
F1345       F  0.28194895  0.93145610  0.73733950    -0.19200
F1346       F  0.11772109  0.86035846  0.81234340    -0.19300
F1347       F  0.10218609  0.88137340  0.78423058    -0.19600
F1348       F  0.14717602  0.92720972  0.80701895    -0.22300
C1349       C  0.03088215  0.60084987  0.75520740    -0.05100
C1350       C  0.05964551  0.63266206  0.76829248     0.00800
C1351       C  0.08889906  0.62936598  0.77857475    -0.07800
C1352       C  0.08783948  0.59389223  0.77544059    -0.05100
C1353       C  0.05855720  0.56177408  0.76271128     0.00800
C1354       C  0.02969813  0.56525192  0.75218826    -0.07700
C1355       C  0.99802275  0.53203429  0.73772910     0.62700
H1356       H  0.00881248  0.60388268  0.74746678     0.13400
H1357       H  0.10954484  0.59052814  0.78334931     0.13400
C1358       C  0.12034540  0.66218741  0.79326195     0.62900
F1359       F  0.97792660  0.54496598  0.72665761    -0.22200
F1360       F  0.96876082  0.49770042  0.74867235    -0.19600
F1361       F  0.01704108  0.52152632  0.72402682    -0.19200
F1362       F  0.10072030  0.67000658  0.80799136    -0.19300
F1363       F  0.14796731  0.69786277  0.78271928    -0.19600
F1364       F  0.14253729  0.65025871  0.80312647    -0.22300
C1365       C  0.15005440  0.88906603  0.93875743    -0.05100
C1366       C  0.11710934  0.88764796  0.94766311     0.00800
C1367       C  0.12452326  0.92371395  0.95689999    -0.07800
C1368       C  0.16456201  0.95999638  0.95635570    -0.05100
C1369       C  0.19733395  0.96166613  0.94708617     0.00800
C1370       C  0.19009931  0.92548239  0.93811063    -0.07700
C1371       C  0.22368981  0.92517539  0.92720643     0.62700
H1372       H  0.14396344  0.86130009  0.93185747     0.13400
H1373       H  0.17058440  0.98778601  0.96319099     0.13400
C1374       C  0.09091074  0.92437662  0.96755968     0.62900
F1375       F  0.20875435  0.88747429  0.91821537    -0.22200
F1376       F  0.25385374  0.93334670  0.94091202    -0.19600
F1377       F  0.24074727  0.95448814  0.91201763    -0.19200
F1378       F  0.07140830  0.89330734  0.98183823    -0.19300
F1379       F  0.06264404  0.91927457  0.95341240    -0.19600
F1380       F  0.10641072  0.96119985  0.97765394    -0.22300
C1381       C  0.85736885  0.75076281  0.95727336    -0.05100
C1382       C  0.89548453  0.78484607  0.95042158     0.00800
C1383       C  0.89856379  0.82052309  0.94387154    -0.07800
C1384       C  0.86254434  0.81921387  0.94300333    -0.05100
C1385       C  0.82407642  0.78417354  0.94865549     0.00800
C1386       C  0.82159129  0.74988571  0.95683448    -0.07700
C1387       C  0.78193126  0.71282018  0.96553383     0.62700
H1388       H  0.85561952  0.72424380  0.96280800     0.13400
H1389       H  0.86399635  0.84544449  0.93727480     0.13400
C1390       C  0.93902318  0.85960334  0.93731897     0.62900
F1391       F  0.78855555  0.68686310  0.97581752    -0.22200
F1392       F  0.75424071  0.69036972  0.95003670    -0.19600
F1393       F  0.76500250  0.72574188  0.97919997    -0.19200
F1394       F  0.95544449  0.85126687  0.92110105    -0.19300
F1395       F  0.96634570  0.87535222  0.95345518    -0.19600
F1396       F  0.93416471  0.88979307  0.93120846    -0.22300
C1397       C  0.98612246  0.75178350  0.86808231    -0.05100
C1398       C  0.99671612  0.73368068  0.88274888     0.00800
C1399       C  0.01159497  0.71052460  0.87594010    -0.07800
C1400       C  0.01564330  0.70705595  0.85480634    -0.05100
C1401       C  0.00692614  0.72693281  0.84029889     0.00800
C1402       C  0.99201497  0.74993330  0.84708871    -0.07700
C1403       C  0.98500068  0.77492875  0.83255496     0.62700
H1404       H  0.97464265  0.76926406  0.87324344     0.13400
H1405       H  0.02723214  0.68978081  0.84941456     0.13400
C1406       C  0.02470828  0.69076076  0.89064253     0.62900
F1407       F  0.97357243  0.79749361  0.84265410    -0.22200
F1408       F  0.95399550  0.74908349  0.81895888    -0.19600
F1409       F  0.02095581  0.80234017  0.82205174    -0.19200
F1410       F  0.99216993  0.66355091  0.90316661    -0.19300
F1411       F  0.05744269  0.72086915  0.90229061    -0.19600
F1412       F  0.03720746  0.66902937  0.88061649    -0.22300
C1413       C  0.95369972  0.56465120  0.41998421    -0.05100
C1414       C  0.97746971  0.59364890  0.43526586     0.00800
C1415       C  0.00295461  0.58831441  0.44779790    -0.07800
C1416       C  0.00318929  0.55352294  0.44465533    -0.05100
C1417       C  0.97893605  0.52409322  0.42958958     0.00800
C1418       C  0.95423885  0.53004601  0.41667281    -0.07700
C1419       C  0.92972433  0.50126704  0.39900199     0.62700
H1420       H  0.93477554  0.56959040  0.41047167     0.13400
H1421       H  0.02195559  0.54861527  0.45430885     0.13400
C1422       C  0.02854339  0.61806409  0.46495253     0.62900
F1423       F  0.91235758  0.51606939  0.38707288    -0.22200
F1424       F  0.89809256  0.46321401  0.40621937    -0.19600
F1425       F  0.95531138  0.49697785  0.38668260    -0.19200
F1426       F  0.00360338  0.62236824  0.47779067    -0.19300
F1427       F  0.05897508  0.65593376  0.45702704    -0.19600
F1428       F  0.04755062  0.60450273  0.47647570    -0.22300
C1429       C  0.86758098  0.73383078  0.42889481    -0.05100
C1430       C  0.85969065  0.69755062  0.43727658     0.00800
C1431       C  0.81908568  0.66573895  0.44324430    -0.07800
C1432       C  0.78797206  0.67186948  0.44068326    -0.05100
C1433       C  0.79604602  0.70836280  0.43249928     0.00800
C1434       C  0.83651489  0.73987287  0.42623544    -0.07700
C1435       C  0.84716572  0.77933550  0.41635961     0.62700
H1436       H  0.89865624  0.75775888  0.42434287     0.13400
H1437       H  0.75687648  0.64815759  0.44535325     0.13400
C1438       C  0.80840984  0.62598351  0.45273700     0.62900
F1439       F  0.88692522  0.80259081  0.40880167    -0.22200
F1440       F  0.84387224  0.80315913  0.43050224    -0.19600
F1441       F  0.82081489  0.77003904  0.40026490    -0.19200
F1442       F  0.83310194  0.63469378  0.46953518    -0.19300
F1443       F  0.81409199  0.60376844  0.43862750    -0.19600
F1444       F  0.76785949  0.60135800  0.45912843    -0.22300
C1445       C  0.02987160  0.55716488  0.61134465    -0.05100
C1446       C  0.06253210  0.56279034  0.59984271     0.00800
C1447       C  0.09105991  0.60148827  0.59067574    -0.07800
C1448       C  0.08637719  0.63356738  0.59404585    -0.05100
C1449       C  0.05369023  0.62784221  0.60562124     0.00800
C1450       C  0.02478268  0.58891131  0.61442861    -0.07700
C1451       C  0.98937433  0.58088770  0.62757795     0.62700
H1452       H  0.00829140  0.52741868  0.61815258     0.13400
H1453       H  0.10798054  0.66341952  0.58733192     0.13400
C1454       C  0.12517425  0.60867248  0.57673544     0.62900
F1455       F  0.96821842  0.54245683  0.63652731    -0.22200
F1456       F  0.96172035  0.58265643  0.61580857    -0.19600
F1457       F  0.00423947  0.60993174  0.64299487    -0.19200
F1458       F  0.10881500  0.57874487  0.56169725    -0.19300
F1459       F  0.15388393  0.60743996  0.58782614    -0.19600
F1460       F  0.14540782  0.64655524  0.56725875    -0.22300
C1461       C  0.19736028  0.85495155  0.61912272    -0.05100
C1462       C  0.16162484  0.85386217  0.61691690     0.00800
C1463       C  0.16543998  0.89156412  0.61538922    -0.07800
C1464       C  0.20490318  0.92855414  0.61645341    -0.05100
C1465       C  0.24064539  0.92956143  0.61826019     0.00800
C1466       C  0.23688404  0.89189374  0.61954485    -0.07700
C1467       C  0.27384399  0.88984774  0.62098285     0.62700
H1468       H  0.19420238  0.82615583  0.62024766     0.13400
H1469       H  0.20813812  0.95741001  0.61548280     0.13400
C1470       C  0.12880066  0.89360642  0.61216570     0.62900
F1471       F  0.26245369  0.84978375  0.62144817    -0.22200
F1472       F  0.29553980  0.90912708  0.63864706    -0.19600
F1473       F  0.29905336  0.90860050  0.60422167    -0.19200
F1474       F  0.10205467  0.87586764  0.62846158    -0.19300
F1475       F  0.10873422  0.87333799  0.59433135    -0.19600
F1476       F  0.14043845  0.93365771  0.61052997    -0.22300
C1477       C  0.97908897  0.69029228  0.68424566    -0.05100
C1478       C  0.00172029  0.72764488  0.67362166     0.00800
C1479       C  0.02012689  0.76505093  0.68463338    -0.07800
C1480       C  0.01878703  0.76374248  0.70604060    -0.05100
C1481       C  0.00014050  0.72663102  0.71675610     0.00800
C1482       C  0.97735132  0.68898016  0.70572085    -0.07700
C1483       C  0.95336959  0.64763885  0.71633781     0.62700
H1484       H  0.96474038  0.66200061  0.67554274     0.13400
H1485       H  0.03508330  0.79221288  0.71467278     0.13400
C1486       C  0.04418795  0.80642762  0.67404122     0.62900
F1487       F  0.93152222  0.61535527  0.70266159    -0.22200
F1488       F  0.92543657  0.64574265  0.72973686    -0.19600
F1489       F  0.97999274  0.64232044  0.72685733    -0.19200
F1490       F  0.01894472  0.80842147  0.66046840    -0.19300
F1491       F  0.07718917  0.81158984  0.66370096    -0.19600
F1492       F  0.05932167  0.83874603  0.68769680    -0.22300
C1493       C  0.02371170  0.75511466  0.51413133    -0.05100
C1494       C  0.98827746  0.71816820  0.50701120     0.00800
C1495       C  0.96051240  0.68818799  0.52156826    -0.07800
C1496       C  0.97124843  0.69529743  0.54235769    -0.05100
C1497       C  0.00792112  0.73104594  0.54920492     0.00800
C1498       C  0.03378171  0.76241823  0.53497786    -0.07700
C1499       C  0.07156182  0.80385238  0.54163987     0.62700
H1500       H  0.04412538  0.77831356  0.50315452     0.13400
H1501       H  0.95161080  0.67205607  0.55348693     0.13400
C1502       C  0.91988082  0.64843950  0.51559229     0.62900
F1503       F  0.08632111  0.83259000  0.52620361    -0.22200
F1504       F  0.10262300  0.79992696  0.54714266    -0.19600
F1505       F  0.06180422  0.81881626  0.55798563    -0.19200
F1506       F  0.92698296  0.62499795  0.50312814    -0.19300
F1507       F  0.89539932  0.65741134  0.50562749    -0.19600
F1508       F  0.89803839  0.62473476  0.53234154    -0.22300
C1509       C  0.00000707  0.55684602  0.28253850    -0.05100
C1510       C  0.96900240  0.52291724  0.27125338     0.00800
C1511       C  0.93606293  0.52327212  0.26332016    -0.07800
C1512       C  0.93561461  0.55780838  0.26714438    -0.05100
C1513       C  0.96712917  0.59218460  0.27807220     0.00800
C1514       C  0.99997464  0.59165802  0.28606263    -0.07700
C1515       C  0.03472946  0.62699063  0.29850727     0.62700
H1516       H  0.02477389  0.55598646  0.28856128     0.13400
H1517       H  0.91091807  0.55867419  0.26102245     0.13400
C1518       C  0.90230487  0.48845594  0.25020787     0.62900
F1519       F  0.06034482  0.61749261  0.30663674    -0.22200
F1520       F  0.01858268  0.63612850  0.31451130    -0.19600
F1521       F  0.05860698  0.66119365  0.28634734    -0.19200
F1522       F  0.87870814  0.45319842  0.26171326    -0.19300
F1523       F  0.91957858  0.48112779  0.23399146    -0.19600
F1524       F  0.87627188  0.49760736  0.24230304    -0.22300
C1525       C  0.86281162  0.74114649  0.27452121    -0.05100
C1526       C  0.85692201  0.70346604  0.27024441     0.00800
C1527       C  0.81795398  0.66983386  0.26325039    -0.07800
C1528       C  0.78579871  0.67476846  0.26176813    -0.05100
C1529       C  0.79131498  0.71209708  0.26660734     0.00800
C1530       C  0.83080930  0.74629670  0.27278506    -0.07700
C1531       C  0.83939778  0.78786319  0.27797333     0.62700
H1532       H  0.89289313  0.76667145  0.27954765     0.13400
H1533       H  0.75569326  0.64908645  0.25686077     0.13400
C1534       C  0.81026309  0.62919017  0.25684050     0.62900
F1535       F  0.87925265  0.81571138  0.28479372    -0.22200
F1536       F  0.81306293  0.78351010  0.29320276    -0.19600
F1537       F  0.83408190  0.80428794  0.26081527    -0.19200
F1538       F  0.81190075  0.60946812  0.27365767    -0.19300
F1539       F  0.83961212  0.63614384  0.24279172    -0.19600
F1540       F  0.77203268  0.60304920  0.24789035    -0.22300
C1541       C  0.97260809  0.75049094  0.35002379    -0.05100
C1542       C  0.00109189  0.74817141  0.33861651     0.00800
C1543       C  0.03421834  0.75130724  0.34874334    -0.07800
C1544       C  0.03427693  0.75078503  0.37024107    -0.05100
C1545       C  0.00288654  0.74821021  0.38149727     0.00800
C1546       C  0.97315074  0.75080045  0.37137932    -0.07700
C1547       C  0.94098172  0.75198159  0.38320255     0.62700
H1548       H  0.94808186  0.74918618  0.34206055     0.13400
H1549       H  0.05688230  0.74904202  0.37833306     0.13400
C1550       C  0.06770783  0.75251169  0.33697899     0.62900
F1551       F  0.91765678  0.75879575  0.37062389    -0.22200
F1552       F  0.96029664  0.78347549  0.39740668    -0.19600
F1553       F  0.91464030  0.71509026  0.39308507    -0.19200
F1554       F  0.08702933  0.78600592  0.32409947    -0.19300
F1555       F  0.05087417  0.71688437  0.32564576    -0.19600
F1556       F  0.09720046  0.75611483  0.34976816    -0.22300
C1557       C  0.16173171  0.96891807  0.10573122    -0.05100
C1558       C  0.19553848  0.96719252  0.10223613     0.00800
C1559       C  0.18886240  0.92870287  0.09833885    -0.07800
C1560       C  0.14844131  0.89314180  0.09901119    -0.05100
C1561       C  0.11470814  0.89464365  0.10328017     0.00800
C1562       C  0.12124801  0.93332513  0.10639467    -0.07700
C1563       C  0.08631868  0.93748863  0.11095499     0.62700
H1564       H  0.16742208  0.99862859  0.10847130     0.13400
H1565       H  0.14290059  0.86348285  0.09634234     0.13400
C1566       C  0.22369840  0.92474361  0.09309164     0.62900
F1567       F  0.10050344  0.97775842  0.11518550    -0.22200
F1568       F  0.06437640  0.91405052  0.12772779    -0.19600
F1569       F  0.06050524  0.92460294  0.09427838    -0.19200
F1570       F  0.24862640  0.93447985  0.10989011    -0.19300
F1571       F  0.24667965  0.95079724  0.07720244    -0.19600
F1572       F  0.20922533  0.88515614  0.08710578    -0.22300
C1573       C  0.85263633  0.74393715  0.10223213    -0.05100
C1574       C  0.89079702  0.78155977  0.10566281     0.00800
C1575       C  0.89241637  0.81805598  0.10756903    -0.07800
C1576       C  0.85568362  0.81521657  0.10563235    -0.05100
C1577       C  0.81756874  0.77759624  0.10213637     0.00800
C1578       C  0.81589227  0.74105533  0.10045175    -0.07700
C1579       C  0.77603012  0.69909423  0.09651669     0.62700
H1580       H  0.85173454  0.71633483  0.10083969     0.13400
H1581       H  0.85648726  0.84277091  0.10702097     0.13400
C1582       C  0.93215005  0.85985764  0.11195341     0.62900
F1583       F  0.78258439  0.66882783  0.09355283    -0.22200
F1584       F  0.75718953  0.70041794  0.07919702    -0.19600
F1585       F  0.74999811  0.68769794  0.11303761    -0.19200
F1586       F  0.95891983  0.87172365  0.09572320    -0.19300
F1587       F  0.95017133  0.85793840  0.12946801    -0.19600
F1588       F  0.92552641  0.89008031  0.11489553    -0.22300
C1589       C  0.02653512  0.73793526  0.01596475    -0.05100
C1590       C  0.98896272  0.72129950  0.00596458     0.00800
C1591       C  0.95222966  0.70140605  0.01756069    -0.07800
C1592       C  0.95526368  0.70383568  0.03899029    -0.05100
C1593       C  0.99363951  0.72615113  0.04893257     0.00800
C1594       C  0.02973546  0.74079403  0.03727466    -0.07700
C1595       C  0.07222538  0.76261090  0.04674805     0.62700
H1596       H  0.05424779  0.75224498  0.00684662     0.13400
H1597       H  0.92773963  0.69148489  0.04802419     0.13400
C1598       C  0.91039591  0.68050071  0.00749357     0.62900
F1599       F  0.10003356  0.76391892  0.03345210    -0.22200
F1600       F  0.07079361  0.74216962  0.06404285    -0.19600
F1601       F  0.08663972  0.80263788  0.05166799    -0.19200
F1602       F  0.90391768  0.64957807  0.99468778    -0.19300
F1603       F  0.90854312  0.70878489  0.99637813    -0.19600
F1604       F  0.87880562  0.66301274  0.02162716    -0.22300
C1605       C  0.02883108  0.77531366  0.18437360    -0.05100
C1606       C  0.00322841  0.74212621  0.17114356     0.00800
C1607       C  0.97822255  0.70189139  0.17913860    -0.07800
C1608       C  0.97775428  0.69688867  0.20031964    -0.05100
C1609       C  0.00073454  0.73045759  0.21382980     0.00800
C1610       C  0.02840441  0.77035542  0.20561056    -0.07700
C1611       C  0.05682509  0.80779335  0.21887612     0.62700
H1612       H  0.04850525  0.80575005  0.17788850     0.13400
H1613       H  0.95786594  0.66628447  0.20655225     0.13400
C1614       C  0.95051686  0.66451826  0.16568194     0.62900
F1615       F  0.08259750  0.84275393  0.20740455    -0.22200
F1616       F  0.08131325  0.80106834  0.23049499    -0.19600
F1617       F  0.03396643  0.81540610  0.23145519    -0.19200
F1618       F  0.97422317  0.65957629  0.15226757    -0.19300
F1619       F  0.92392224  0.66953589  0.15489841    -0.19600
F1620       F  0.92697848  0.62872550  0.17688290    -0.22300
loop_ 
_geom_bond_atom_site_label_1 
_geom_bond_atom_site_label_2 
_geom_bond_distance 
_geom_bond_site_symmetry_2 
_ccdc_geom_bond_type 
O1            C4   1.267       .  A
O1           Cd6   2.451   1_455  S
C2           O11   1.266       .  A
C2            O7   1.263       .  A
C2         C1574   1.488       .  S
O3            C9   1.259   1_455  A
O3           Cd6   2.437   1_455  S
C4           O12   1.268       .  A
C4         C1561   1.482       .  S
C5           O10   1.267   1_455  A
C5            O8   1.261       .  A
C5         C1606   1.485       .  S
Cd6          O13   2.508       .  S
Cd6          O12   2.417   1_655  S
Cd6          O11   2.445       .  S
Cd6           O7   2.449       .  S
Cd6          O10   2.506       .  S
Cd6           O8   2.426   1_655  S
C9           O13   1.266       .  A
C9         C1593   1.491       .  S
O14          C17   1.269       .  A
O14         Cd19   2.462       .  S
C15          O24   1.267       .  A
C15          O20   1.268       .  A
C15        C1526   1.485       .  S
O16          C22   1.271   1_455  A
O16         Cd19   2.505   1_455  S
C17          O25   1.264       .  A
C17        C1513   1.488       .  S
C18          O23   1.272   1_655  A
C18          O21   1.263       .  A
C18        C1609   1.495   1_655  S
Cd19         O26   2.408       .  S
Cd19         O25   2.440       .  S
Cd19         O24   2.441       .  S
Cd19         O20   2.449       .  S
Cd19         O23   2.508   1_655  S
Cd19         O21   2.390       .  S
C22          O26   1.264       .  A
C22        C1542   1.482   1_655  S
O27          C30   1.268       .  A
O27         Cd32   2.436       .  S
C28          O37   1.266       .  A
C28          O33   1.268       .  A
C28        C1449   1.483       .  S
O29          C35   1.267       .  A
O29         Cd32   2.517       .  S
C30          O38   1.263       .  A
C30        C1462   1.489       .  S
C31          O36   1.271   1_455  A
C31          O34   1.259       .  A
C31        C1497   1.489       .  S
Cd32         O39   2.460       .  S
Cd32         O38   2.444       .  S
Cd32         O37   2.446       .  S
Cd32         O33   2.463       .  S
Cd32         O36   2.519   1_455  S
Cd32         O34   2.430       .  S
C35          O39   1.263       .  A
C35        C1478   1.486       .  S
O40          C43   1.268       .  A
O40         Cd45   2.445       .  S
C41          O50   1.267   1_655  A
C41          O46   1.269       .  A
C41        C1414   1.478       .  S
O42          C48   1.273   1_455  A
O42         Cd45   2.521   1_455  S
C43          O51   1.267       .  A
C43        C1430   1.479       .  S
C44          O49   1.276   1_655  A
C44          O47   1.261       .  A
C44        C1494   1.499       .  S
Cd45         O52   2.386       .  S
Cd45         O51   2.401       .  S
Cd45         O50   2.435   1_655  S
Cd45         O46   2.438       .  S
Cd45         O49   2.507   1_655  S
Cd45         O47   2.397       .  S
C48          O52   1.262       .  A
C48        C1545   1.473   1_655  S
O53          C56   1.263       .  A
O53         Cd58   2.445       .  S
C54          O63   1.268       .  A
C54          O59   1.264       .  A
C54        C1366   1.486       .  S
O55          C61   1.268       .  A
O55         Cd58   2.526       .  S
C56          O64   1.267       .  A
C56        C1382   1.487       .  S
C57          O62   1.267   1_655  A
C57          O60   1.262       .  A
C57        C1398   1.499       .  S
Cd58         O65   2.414   1_655  S
Cd58         O64   2.452       .  S
Cd58         O63   2.458   1_655  S
Cd58         O59   2.435   1_655  S
Cd58         O62   2.510   1_655  S
Cd58         O60   2.436       .  S
C61          O65   1.261   1_655  A
C61        C1590   1.483   1_556  S
O66          C69   1.264       .  A
O66         Cd71   2.443       .  S
C67          O76   1.266       .  A
C67          O72   1.268       .  A
C67        C1334   1.488       .  S
O68          C74   1.267   1_655  A
O68         Cd71   2.514   1_655  S
C69          O77   1.265       .  A
C69        C1350   1.478       .  S
C70          O75   1.267       .  A
C70          O73   1.262       .  A
C70        C1401   1.492       .  S
Cd71         O78   2.431       .  S
Cd71         O77   2.432       .  S
Cd71         O76   2.457       .  S
Cd71         O72   2.435       .  S
Cd71         O75   2.483       .  S
Cd71         O73   2.456       .  S
C74          O78   1.263       .  A
C74        C1481   1.490       .  S
O79          C82   1.266       .  A
O79         Cd84   2.440       .  S
C80          O89   1.265       .  A
C80          O85   1.269       .  A
C80        C1577   1.487       .  S
O81          C87   1.272       .  A
O81         Cd84   2.493       .  S
C82          O90   1.267       .  A
C82        C1289   1.483       .  S
C83          O88   1.270       .  A
C83          O86   1.262       .  A
C83        C1305   1.474       .  S
Cd84         O91   2.408       .  S
Cd84         O90   2.442       .  S
Cd84         O89   2.433       .  S
Cd84         O85   2.446       .  S
Cd84         O88   2.514       .  S
Cd84         O86   2.419       .  S
C87          O91   1.264       .  A
C87        C1318   1.493       .  S
O92          C95   1.267       .  A
O92         Cd97   2.439       .  S
C93         O102   1.263       .  A
C93          O98   1.265       .  A
C93        C1257   1.490       .  S
O94         C100   1.261       .  A
O94         Cd97   2.428       .  S
C95         O103   1.267       .  A
C95        C1529   1.487       .  S
C96         O101   1.269       .  A
C96          O99   1.262       .  A
C96        C1321   1.496       .  S
Cd97        O104   2.534       .  S
Cd97        O103   2.454       .  S
Cd97        O102   2.448       .  S
Cd97         O98   2.438       .  S
Cd97        O101   2.504       .  S
Cd97         O99   2.436       .  S
C100        O104   1.269       .  A
C100       C1270   1.484       .  S
O105        C108   1.262       .  A
O105       Cd110   2.453       .  S
C106        O115   1.267       .  A
C106        O111   1.268       .  A
C106       C1433   1.477       .  S
O107        C113   1.268       .  A
O107       Cd110   2.515       .  S
C108        O116   1.266       .  A
C108       C1225   1.489       .  S
C109        O114   1.269       .  A
C109        O112   1.262       .  A
C109       C1238   1.493       .  S
Cd110       O117   2.442       .  S
Cd110       O116   2.468       .  S
Cd110       O115   2.423       .  S
Cd110       O111   2.423       .  S
Cd110       O114   2.507       .  S
Cd110       O112   2.444       .  S
C113        O117   1.262       .  A
C113       C1273   1.484       .  S
O118        C121   1.265       .  A
O118       Cd123   2.434       .  S
C119        O128   1.266       .  A
C119        O124   1.264       .  A
C119       C1190   1.483       .  S
O120        C126   1.265       .  A
O120       Cd123   2.487       .  S
C121        O129   1.269       .  A
C121       C1174   1.485       .  S
C122        O127   1.270       .  A
C122        O125   1.261       .  A
C122       C1241   1.493       .  S
Cd123       O130   2.471       .  S
Cd123       O129   2.439       .  S
Cd123       O128   2.431       .  S
Cd123       O124   2.442       .  S
Cd123       O127   2.515       .  S
Cd123       O125   2.410       .  S
C126        O130   1.263       .  A
C126       C1206   1.488       .  S
O131        C134   1.268       .  A
O131       Cd136   2.465       .  S
C132        O141   1.262       .  A
C132        O137   1.267       .  A
C132       C1385   1.482       .  S
O133        C139   1.268       .  A
O133       Cd136   2.505       .  S
C134        O142   1.268       .  A
C134       C1145   1.485       .  S
C135        O140   1.268       .  A
C135        O138   1.265       .  A
C135       C1158   1.500       .  S
Cd136       O143   2.422       .  S
Cd136       O142   2.423       .  S
Cd136       O141   2.436       .  S
Cd136       O137   2.462       .  S
Cd136       O140   2.500       .  S
Cd136       O138   2.442       .  S
C139        O143   1.261       .  A
C139       C1302   1.475       .  S
O144        C147   1.264       .  A
O144       Cd149   2.443       .  S
C145        O154   1.267       .  A
C145        O150   1.269       .  A
C145       C1126   1.486       .  S
O146        C152   1.270       .  A
O146       Cd149   2.513       .  S
C147        O155   1.266       .  A
C147       C1110   1.487       .  S
C148        O153   1.268       .  A
C148        O151   1.262       .  A
C148       C1209   1.492       .  S
Cd149       O156   2.444       .  S
Cd149       O155   2.435       .  S
Cd149       O154   2.440       .  S
Cd149       O150   2.447       .  S
Cd149       O153   2.522       .  S
Cd149       O151   2.445       .  S
C152        O156   1.263       .  A
C152       C1161   1.498       .  S
O157        C160   1.269   1_545  A
O157       Cd162   2.438       .  S
C158        O167   1.266       .  A
C158        O163   1.265       .  A
C158       C1065   1.486       .  S
O159        C165   1.267       .  A
O159       Cd162   2.503       .  S
C160        O168   1.266       .  A
C160       C1286   1.481       .  S
C161        O166   1.271       .  A
C161        O164   1.258       .  A
C161       C1094   1.488       .  S
Cd162       O169   2.428       .  S
Cd162       O168   2.438   1_545  S
Cd162       O167   2.448       .  S
Cd162       O163   2.453       .  S
Cd162       O166   2.511       .  S
Cd162       O164   2.393       .  S
C165        O169   1.261       .  A
C165       C1078   1.481       .  S
O170        C173   1.264       .  A
O170       Cd175   2.446       .  S
C171        O180   1.268       .  A
C171        O176   1.265       .  A
C171       C1014   1.478       .  S
O172        C178   1.267       .  A
O172       Cd175   2.502       .  S
C173        O181   1.266       .  A
C173       C1030   1.484       .  S
C174        O179   1.270       .  A
C174        O177   1.261       .  A
C174       C1097   1.481       .  S
Cd175       O182   2.441       .  S
Cd175       O181   2.447       .  S
Cd175       O180   2.454       .  S
Cd175       O176   2.429       .  S
Cd175       O179   2.477       .  S
Cd175       O177   2.436       .  S
C178        O182   1.261       .  A
C178       C1046   1.482       .  S
O183        C186   1.268       .  A
O183       Cd188   2.452       .  S
C184        O193   1.264       .  A
C184        O189   1.268       .  A
C184        C966   1.485       .  S
O185        C191   1.268       .  A
O185       Cd188   2.515       .  S
C186        O194   1.265       .  A
C186        C982   1.482       .  S
C187        O192   1.266       .  A
C187        O190   1.262       .  A
C187       C1049   1.493       .  S
Cd188       O195   2.458       .  S
Cd188       O194   2.441       .  S
Cd188       O193   2.430       .  S
Cd188       O189   2.452       .  S
Cd188       O192   2.516       .  S
Cd188       O190   2.448       .  S
C191        O195   1.261       .  A
C191        C998   1.491       .  S
O196        C199   1.269       .  A
O196       Cd201   2.450   1_565  S
C197        O206   1.266       .  A
C197        O202   1.265   1_545  A
C197        C934   1.490       .  S
O198        C204   1.271       .  A
O198       Cd201   2.527       .  S
C199        O207   1.265       .  A
C199       C1193   1.481       .  S
C200        O205   1.271       .  A
C200        O203   1.264       .  A
C200       C1001   1.498       .  S
Cd201       O208   2.408       .  S
Cd201       O207   2.409   1_545  S
Cd201       O206   2.424       .  S
Cd201       O202   2.463   1_545  S
Cd201       O205   2.510       .  S
Cd201       O203   2.422       .  S
C204        O208   1.263       .  A
C204        C950   1.477       .  S
O209        C212   1.267       .  A
O209       Cd214   2.435       .  S
C210        O219   1.263       .  A
C210        O215   1.265       .  A
C210        C905   1.481       .  S
O211        C217   1.268       .  A
O211       Cd214   2.510       .  S
C212        O220   1.267   1_545  A
C212       C1142   1.482   1_545  S
C213        O218   1.267       .  A
C213        O216   1.261       .  A
C213       C1081   1.480   1_556  S
Cd214       O221   2.435       .  S
Cd214       O220   2.454   1_545  S
Cd214       O219   2.450       .  S
Cd214       O215   2.451       .  S
Cd214       O218   2.507       .  S
Cd214       O216   2.433       .  S
C217        O221   1.262       .  A
C217        C918   1.495       .  S
O222        C225   1.269       .  A
O222       Cd227   2.459       .  S
C223        O232   1.268   1_565  A
C223        O228   1.268       .  A
C223       C1129   1.487       .  S
O224        C230   1.272       .  A
O224       Cd227   2.528       .  S
C225        O233   1.264       .  A
C225        C886   1.488       .  S
C226        O231   1.272       .  A
C226        O229   1.264       .  A
C226        C921   1.499       .  S
Cd227       O234   2.407       .  S
Cd227       O233   2.442       .  S
Cd227       O232   2.438       .  S
Cd227       O228   2.455   1_545  S
Cd227       O231   2.507       .  S
Cd227       O229   2.416       .  S
C230        O234   1.262       .  A
C230        C953   1.477       .  S
O235        C238   1.267       .  A
O235       Cd240   2.436       .  S
C236        O245   1.268       .  A
C236        O241   1.264       .  A
C236        C841   1.483       .  S
O237        C243   1.269       .  A
O237       Cd240   2.510       .  S
C238        O246   1.265       .  A
C238       C1558   1.479   1_545  S
C239        O244   1.264       .  A
C239        O242   1.263       .  A
C239        C854   1.499       .  S
Cd240       O247   2.439       .  S
Cd240       O246   2.428       .  S
Cd240       O245   2.454       .  S
Cd240       O241   2.441       .  S
Cd240       O244   2.478       .  S
Cd240       O242   2.489       .  S
C243        O247   1.261       .  A
C243        C870   1.494       .  S
O248        C251   1.271       .  A
O248       Cd253   2.472       .  S
C249        O258   1.263       .  A
C249        O254   1.269       .  A
C249       C1033   1.482       .  S
O250        C256   1.271       .  A
O250       Cd253   2.519       .  S
C251        O259   1.264       .  A
C251        C809   1.494       .  S
C252        O257   1.271       .  A
C252        O255   1.263       .  A
C252        C873   1.494       .  S
Cd253       O260   2.403       .  S
Cd253       O259   2.413       .  S
Cd253       O258   2.423       .  S
Cd253       O254   2.477       .  S
Cd253       O257   2.521       .  S
Cd253       O255   2.401       .  S
C256        O260   1.263       .  A
C256        C822   1.480       .  S
O261        C264   1.265       .  A
O261       Cd266   2.457       .  S
C262        O271   1.264       .  A
C262        O267   1.269       .  A
C262        C777   1.482       .  S
O263        C269   1.271       .  A
O263       Cd266   2.523       .  S
C264        O272   1.267       .  A
C264        C985   1.486       .  S
C265        O270   1.272       .  A
C265        O268   1.261       .  A
C265        C790   1.494       .  S
Cd266       O273   2.393       .  S
Cd266       O272   2.447       .  S
Cd266       O271   2.416       .  S
Cd266       O267   2.457       .  S
Cd266       O270   2.509       .  S
Cd266       O268   2.422       .  S
C269        O273   1.262       .  A
C269        C825   1.473       .  S
O274        C277   1.262       .  A
O274       Cd279   2.431   1_565  S
C275        O284   1.267       .  A
C275        O280   1.266       .  A
C275        C937   1.486       .  S
O276        C282   1.272       .  A
O276       Cd279   2.497       .  S
C277        O285   1.266   1_565  A
C277       C1465   1.487       .  S
C278        O283   1.261       .  A
C278        O281   1.267       .  A
C278        C761   1.481       .  S
Cd279       O286   2.423       .  S
Cd279       O285   2.436       .  S
Cd279       O284   2.456       .  S
Cd279       O280   2.427       .  S
Cd279       O283   2.443       .  S
Cd279       O281   2.513       .  S
C282        O286   1.259       .  A
C282        C793   1.493       .  S
O287        C290   1.265       .  A
O287       Cd292   2.437   1_565  S
C288        O297   1.267       .  A
C288        O293   1.263       .  A
C288        C889   1.488       .  S
O289        C295   1.262       .  A
O289       Cd292   2.437       .  S
C290        O298   1.268   1_565  A
C290       C1337   1.488       .  S
C291        O296   1.268       .  A
C291        O294   1.262       .  A
C291        C742   1.492       .  S
Cd292       O299   2.523       .  S
Cd292       O298   2.463       .  S
Cd292       O297   2.474       .  S
Cd292       O293   2.444       .  S
Cd292       O296   2.505       .  S
Cd292       O294   2.445       .  S
C295        O299   1.268       .  A
C295        C758   1.487       .  S
O300        C303   1.268       .  A
O300       Cd305   2.429       .  S
C301        O310   1.264       .  A
C301        O306   1.266       .  A
C301       C1369   1.485   1_545  S
O302        C308   1.271       .  A
O302       Cd305   2.514       .  S
C303        O311   1.266       .  A
C303        C726   1.488       .  S
C304        O309   1.269       .  A
C304        O307   1.261       .  A
C304        C857   1.483   1_556  S
Cd305       O312   2.420       .  S
Cd305       O311   2.436       .  S
Cd305       O310   2.460       .  S
Cd305       O306   2.445       .  S
Cd305       O309   2.522       .  S
Cd305       O307   2.437       .  S
C308        O312   1.263       .  A
C308        C745   1.495       .  S
O313        C316   1.269       .  A
O313       Cd318   2.481       .  S
C314        O323   1.266       .  A
C314        O319   1.270       .  A
C314        C838   1.479       .  S
O315        C321   1.270       .  A
O315       Cd318   2.519       .  S
C316        O324   1.263       .  A
C316        C681   1.485       .  S
C317        O322   1.271       .  A
C317        O320   1.264       .  A
C317        C710   1.493       .  S
Cd318       O325   2.434       .  S
Cd318       O324   2.418       .  S
Cd318       O323   2.436       .  S
Cd318       O319   2.448       .  S
Cd318       O322   2.495       .  S
Cd318       O320   2.426       .  S
C321        O325   1.262       .  A
C321        C694   1.480       .  S
O326        C329   1.265       .  A
O326       Cd331   2.448       .  S
C327        O336   1.268       .  A
C327        O332   1.265       .  A
C327        C806   1.487       .  S
O328        C334   1.262       .  A
O328       Cd331   2.474       .  S
C329        O337   1.267       .  A
C329       C1254   1.488       .  S
C330        O335   1.268       .  A
C330        O333   1.261       .  A
C330        C713   1.494       .  S
Cd331       O338   2.458       .  S
Cd331       O337   2.430       .  S
Cd331       O336   2.436       .  S
Cd331       O332   2.451       .  S
Cd331       O335   2.513       .  S
Cd331       O333   2.413       .  S
C334        O338   1.264       .  A
C334        C662   1.493       .  S
O339        C342   1.267       .  A
O339       Cd344   2.452       .  S
C340        O349   1.263       .  A
C340        O345   1.266       .  A
C340       C1222   1.491       .  S
O341        C347   1.267       .  A
O341       Cd344   2.511       .  S
C342        O350   1.268       .  A
C342        C774   1.485       .  S
C343        O348   1.271       .  A
C343        O346   1.260       .  A
C343        C646   1.486       .  S
Cd344       O351   2.428       .  S
Cd344       O350   2.419       .  S
Cd344       O349   2.472       .  S
Cd344       O345   2.444       .  S
Cd344       O348   2.495       .  S
Cd344       O346   2.423       .  S
C347        O351   1.262       .  A
C347        C665   1.481       .  S
O352        C355   1.263       .  A
O352       Cd357   2.429       .  S
C353        O362   1.267       .  A
C353        O358   1.267       .  A
C353       C1177   1.484       .  S
O354        C360   1.267       .  A
O354       Cd357   2.503       .  S
C355        O363   1.266       .  A
C355        C614   1.476       .  S
C356        O361   1.270       .  A
C356        O359   1.260       .  A
C356        C649   1.484       .  S
Cd357       O364   2.442       .  S
Cd357       O363   2.435       .  S
Cd357       O362   2.440       .  S
Cd357       O358   2.430       .  S
Cd357       O361   2.500       .  S
Cd357       O359   2.421       .  S
C360        O364   1.262       .  A
C360        C630   1.486       .  S
O365        C368   1.266       .  A
O365       Cd370   2.436       .  S
C366        O375   1.269       .  A
C366        O371   1.265       .  A
C366        C582   1.482       .  S
O367        C373   1.266       .  A
O367       Cd370   2.503       .  S
C368        O376   1.264       .  A
C368       C1113   1.486       .  S
C369        O374   1.270       .  A
C369        O372   1.260       .  A
C369        C601   1.502       .  S
Cd370       O377   2.468       .  S
Cd370       O376   2.445       .  S
Cd370       O375   2.447       .  S
Cd370       O371   2.435       .  S
Cd370       O374   2.539       .  S
Cd370       O372   2.426       .  S
C373        O377   1.264       .  A
C373        C633   1.494       .  S
O378        C381   1.266       .  A
O378       Cd383   2.431       .  S
C379        O388   1.267       .  A
C379        O384   1.266       .  A
C379        C729   1.490       .  S
O380        C386   1.272       .  A
O380       Cd383   2.504       .  S
C381        O389   1.268       .  A
C381        C569   1.487       .  S
C382        O387   1.272       .  A
C382        O385   1.263       .  A
C382        C697   1.481       .  S
Cd383       O390   2.427       .  S
Cd383       O389   2.445       .  S
Cd383       O388   2.418       .  S
Cd383       O384   2.453       .  S
Cd383       O387   2.526       .  S
Cd383       O385   2.421       .  S
C386        O390   1.264       .  A
C386        C598   1.497       .  S
O391        C394   1.269       .  A
O391       Cd396   2.462   1_655  S
C392        O401   1.267       .  A
C392        O397   1.267       .  A
C392        C678   1.490       .  S
O393        C399   1.262       .  A
O393       Cd396   2.500       .  S
C394        O402   1.264       .  A
C394       C1062   1.490       .  S
C395        O400   1.268       .  A
C395        O398   1.261       .  A
C395        C550   1.502       .  S
Cd396       O403   2.483   1_455  S
Cd396       O402   2.447   1_455  S
Cd396       O401   2.425       .  S
Cd396       O397   2.491       .  S
Cd396       O400   2.525       .  S
Cd396       O398   2.441       .  S
C399        O403   1.263   1_455  A
C399        C537   1.498       .  S
O404        C407   1.263       .  A
O404       Cd409   2.449       .  S
C405        O414   1.266       .  A
C405        O410   1.266       .  A
C405       C1017   1.479       .  S
O406        C412   1.267       .  A
O406       Cd409   2.504   1_455  S
C407        O415   1.267   1_655  A
C407       C1510   1.484       .  S
C408        O413   1.267       .  A
C408        O411   1.262   1_455  A
C408        C518   1.492       .  S
Cd409       O416   2.466       .  S
Cd409       O415   2.449   1_655  S
Cd409       O414   2.441       .  S
Cd409       O410   2.442       .  S
Cd409       O413   2.508   1_655  S
Cd409       O411   2.467       .  S
C412        O416   1.262   1_455  A
C412        C553   1.493       .  S
O417        C420   1.268       .  A
O417       Cd422   2.465       .  S
C418        O427   1.265       .  A
C418        O423   1.271       .  A
C418        C617   1.479       .  S
O419        C425   1.274       .  A
O419       Cd422   2.525       .  S
C420        O428   1.268       .  A
C420       C1446   1.484       .  S
C421        O426   1.275       .  A
C421        O424   1.261       .  A
C421        C505   1.492       .  S
Cd422       O429   2.375       .  S
Cd422       O428   2.430       .  S
Cd422       O427   2.419       .  S
Cd422       O423   2.444       .  S
Cd422       O426   2.501       .  S
Cd422       O424   2.393       .  S
C425        O429   1.263       .  A
C425        C486   1.478       .  S
O430        C433   1.264       .  A
O430       Cd435   2.443       .  S
C431        O440   1.269   1_655  A
C431        O436   1.265       .  A
C431       C1417   1.482       .  S
O432        C438   1.272       .  A
O432       Cd435   2.513   1_455  S
C433        O441   1.265       .  A
C433        C969   1.477       .  S
C434        O439   1.268       .  A
C434        O437   1.262       .  A
C434        C521   1.485       .  S
Cd435       O442   2.432       .  S
Cd435       O441   2.438       .  S
Cd435       O440   2.447   1_655  S
Cd435       O436   2.438       .  S
Cd435       O439   2.516   1_655  S
Cd435       O437   2.437   1_655  S
C438        O442   1.259   1_455  A
C438        C502   1.493       .  S
O443        C446   1.268       .  A
O443       Cd448   2.421       .  S
C444        O453   1.265       .  A
C444        O449   1.269       .  A
C444        C585   1.478       .  S
O445        C451   1.274       .  A
O445       Cd448   2.502       .  S
C446        O454   1.266       .  A
C446       C1353   1.475       .  S
C447        O452   1.273       .  A
C447        O450   1.263       .  A
C447        C489   1.481       .  S
Cd448       O455   2.416       .  S
Cd448       O454   2.428       .  S
Cd448       O453   2.417       .  S
Cd448       O449   2.460       .  S
Cd448       O452   2.529       .  S
Cd448       O450   2.387       .  S
C451        O455   1.262       .  A
C451        C470   1.489       .  S
O456        C459   1.264       .  A
O456       Cd461   2.445   1_655  S
C457        O466   1.267       .  A
C457        O462   1.267       .  A
C457        C566   1.491       .  S
O458        C464   1.271       .  A
O458       Cd461   2.513       .  S
C459        O467   1.265       .  A
C459        C902   1.476       .  S
C460        O465   1.266       .  A
C460        O463   1.262       .  A
C460        C534   1.485       .  S
Cd461       O468   2.437       .  S
Cd461       O467   2.443   1_455  S
Cd461       O466   2.462       .  S
Cd461       O462   2.432       .  S
Cd461       O465   2.502       .  S
Cd461       O463   2.443       .  S
C464        O468   1.258       .  A
C464        C473   1.499       .  S
C469        C470   1.401       .  A
C469        C474   1.410       .  A
C469        H476   1.082   1_455  S
C470        C471   1.422       .  A
C471        C472   1.408       .  A
C471        C478   1.521       .  S
C472        C473   1.405       .  A
C472        H477   1.082       .  S
C473        C474   1.429       .  A
C474        C475   1.522   1_455  S
C475        F479   1.385       .  S
C475        F480   1.384       .  S
C475        F481   1.383   1_655  S
C478        F482   1.384       .  S
C478        F483   1.382       .  S
C478        F484   1.385       .  S
C485        C486   1.405   1_655  A
C485        C490   1.416       .  A
C485        H492   1.083       .  S
C486        C487   1.417       .  A
C487        C488   1.399       .  A
C487        C494   1.520       .  S
C488        C489   1.402       .  A
C488        H493   1.085       .  S
C489        C490   1.417   1_455  A
C490        C491   1.514       .  S
C491        F495   1.384       .  S
C491        F496   1.383       .  S
C491        F497   1.383       .  S
C494        F498   1.383       .  S
C494        F499   1.384       .  S
C494        F500   1.385       .  S
C501        C502   1.402       .  A
C501        C506   1.407       .  A
C501        H508   1.083       .  S
C502        C503   1.425   1_455  A
C503        C504   1.409       .  A
C503        C510   1.521       .  S
C504        C505   1.403   1_655  A
C504        H509   1.083       .  S
C505        C506   1.426       .  A
C506        C507   1.522       .  S
C507        F511   1.385       .  S
C507        F512   1.383       .  S
C507        F513   1.383       .  S
C510        F514   1.384       .  S
C510        F515   1.383       .  S
C510        F516   1.385       .  S
C517        C518   1.407       .  A
C517        C522   1.411       .  A
C517        H524   1.083       .  S
C518        C519   1.420       .  A
C519        C520   1.409       .  A
C519        C526   1.518       .  S
C520        C521   1.403       .  A
C520        H525   1.084       .  S
C521        C522   1.416       .  A
C522        C523   1.518       .  S
C523        F527   1.384   1_455  S
C523        F528   1.383   1_455  S
C523        F529   1.384       .  S
C526        F530   1.383       .  S
C526        F531   1.383       .  S
C526        F532   1.384       .  S
C533        C534   1.403   1_554  A
C533        C538   1.409       .  A
C533        H540   1.084   1_554  S
C534        C535   1.418   1_456  A
C535        C536   1.409       .  A
C535        C542   1.519   1_554  S
C536        C537   1.409   1_655  A
C536        H541   1.082       .  S
C537        C538   1.423       .  A
C538        C539   1.517       .  S
C539        F543   1.385       .  S
C539        F544   1.382       .  S
C539        F545   1.383       .  S
C542        F546   1.382       .  S
C542        F547   1.383       .  S
C542        F548   1.385   1_556  S
C549        C550   1.411       .  A
C549        C554   1.408       .  A
C549        H556   1.082       .  S
C550        C551   1.423       .  A
C551        C552   1.413       .  A
C551        C558   1.519       .  S
C552        C553   1.407       .  A
C552        H557   1.083       .  S
C553        C554   1.417       .  A
C554        C555   1.521       .  S
C555        F559   1.385       .  S
C555        F560   1.384   1_455  S
C555        F561   1.383       .  S
C558        F562   1.383   1_455  S
C558        F563   1.383       .  S
C558        F564   1.385       .  S
C565        C566   1.407       .  A
C565        C570   1.405       .  A
C565        H572   1.082       .  S
C566        C567   1.422       .  A
C567        C568   1.408       .  A
C567        C574   1.521       .  S
C568        C569   1.406       .  A
C568        H573   1.082       .  S
C569        C570   1.420       .  A
C570        C571   1.522       .  S
C571        F575   1.384       .  S
C571        F576   1.384       .  S
C571        F577   1.383       .  S
C574        F578   1.383       .  S
C574        F579   1.383       .  S
C574        F580   1.385       .  S
C581        C582   1.404       .  A
C581        C586   1.403       .  A
C581        H588   1.082       .  S
C582        C583   1.422       .  A
C583        C584   1.407       .  A
C583        C590   1.521       .  S
C584        C585   1.403       .  A
C584        H589   1.083       .  S
C585        C586   1.417       .  A
C586        C587   1.520       .  S
C587        F591   1.384       .  S
C587        F592   1.382       .  S
C587        F593   1.384       .  S
C590        F594   1.384       .  S
C590        F595   1.383       .  S
C590        F596   1.385       .  S
C597        C598   1.410       .  A
C597        C602   1.412       .  A
C597        H604   1.083       .  S
C598        C599   1.418       .  A
C599        C600   1.409       .  A
C599        C606   1.520       .  S
C600        C601   1.412       .  A
C600        H605   1.082       .  S
C601        C602   1.421       .  A
C602        C603   1.519       .  S
C603        F607   1.385       .  S
C603        F608   1.383       .  S
C603        F609   1.383       .  S
C606        F610   1.383       .  S
C606        F611   1.384       .  S
C606        F612   1.385       .  S
C613        C614   1.402       .  A
C613        C618   1.402       .  A
C613        H620   1.083       .  S
C614        C615   1.418       .  A
C615        C616   1.404       .  A
C615        C622   1.520       .  S
C616        C617   1.404       .  A
C616        H621   1.083       .  S
C617        C618   1.420       .  A
C618        C619   1.521       .  S
C619        F623   1.385       .  S
C619        F624   1.382       .  S
C619        F625   1.382       .  S
C622        F626   1.383       .  S
C622        F627   1.384       .  S
C622        F628   1.385       .  S
C629        C630   1.403       .  A
C629        C634   1.409       .  A
C629        H636   1.084       .  S
C630        C631   1.418       .  A
C631        C632   1.411       .  A
C631        C638   1.520       .  S
C632        C633   1.408       .  A
C632        H637   1.083       .  S
C633        C634   1.424       .  A
C634        C635   1.520       .  S
C635        F639   1.385       .  S
C635        F640   1.383       .  S
C635        F641   1.383       .  S
C638        F642   1.383       .  S
C638        F643   1.384       .  S
C638        F644   1.384       .  S
C645        C646   1.402       .  A
C645        C650   1.406       .  A
C645        H652   1.083       .  S
C646        C647   1.424       .  A
C647        C648   1.407       .  A
C647        C654   1.521       .  S
C648        C649   1.401       .  A
C648        H653   1.083       .  S
C649        C650   1.421       .  A
C650        C651   1.519       .  S
C651        F655   1.385       .  S
C651        F656   1.382       .  S
C651        F657   1.384       .  S
C654        F658   1.382       .  S
C654        F659   1.384       .  S
C654        F660   1.385       .  S
C661        C662   1.408       .  A
C661        C666   1.407       .  A
C661        H668   1.083       .  S
C662        C663   1.423       .  A
C663        C664   1.408       .  A
C663        C670   1.519       .  S
C664        C665   1.403       .  A
C664        H669   1.084       .  S
C665        C666   1.415       .  A
C666        C667   1.518       .  S
C667        F671   1.385       .  S
C667        F672   1.383       .  S
C667        F673   1.383       .  S
C670        F674   1.383       .  S
C670        F675   1.384       .  S
C670        F676   1.385       .  S
C677        C678   1.404       .  A
C677        C682   1.402       .  A
C677        H684   1.082       .  S
C678        C679   1.421       .  A
C679        C680   1.411       .  A
C679        C686   1.519       .  S
C680        C681   1.406       .  A
C680        H685   1.082       .  S
C681        C682   1.420       .  A
C682        C683   1.523       .  S
C683        F687   1.385       .  S
C683        F688   1.383       .  S
C683        F689   1.384       .  S
C686        F690   1.383       .  S
C686        F691   1.382       .  S
C686        F692   1.385       .  S
C693        C694   1.404       .  A
C693        C698   1.411       .  A
C693        H700   1.083       .  S
C694        C695   1.416       .  A
C695        C696   1.409       .  A
C695        C702   1.518       .  S
C696        C697   1.403   1_554  A
C696        H701   1.083   1_554  S
C697        C698   1.416   1_556  A
C698        C699   1.516   1_554  S
C699        F703   1.385   1_556  S
C699        F704   1.383       .  S
C699        F705   1.383       .  S
C702        F706   1.383       .  S
C702        F707   1.383       .  S
C702        F708   1.384       .  S
C709        C710   1.410       .  A
C709        C714   1.410       .  A
C709        H716   1.083       .  S
C710        C711   1.418       .  A
C711        C712   1.406       .  A
C711        C718   1.520       .  S
C712        C713   1.409       .  A
C712        H717   1.082       .  S
C713        C714   1.419       .  A
C714        C715   1.520       .  S
C715        F719   1.385       .  S
C715        F720   1.383       .  S
C715        F721   1.383       .  S
C718        F722   1.383       .  S
C718        F723   1.383       .  S
C718        F724   1.385       .  S
C725        C726   1.406       .  A
C725        C730   1.405       .  A
C725        H732   1.082       .  S
C726        C727   1.421       .  A
C727        C728   1.404       .  A
C727        C734   1.522       .  S
C728        C729   1.407       .  A
C728        H733   1.081       .  S
C729        C730   1.422       .  A
C730        C731   1.522       .  S
C731        F735   1.385       .  S
C731        F736   1.383       .  S
C731        F737   1.383       .  S
C734        F738   1.383       .  S
C734        F739   1.383       .  S
C734        F740   1.385       .  S
C741        C742   1.409       .  A
C741        C746   1.411       .  A
C741        H748   1.083       .  S
C742        C743   1.418       .  A
C743        C744   1.408       .  A
C743        C750   1.521       .  S
C744        C745   1.409       .  A
C744        H749   1.082       .  S
C745        C746   1.419       .  A
C746        C747   1.519       .  S
C747        F751   1.385       .  S
C747        F752   1.384       .  S
C747        F753   1.383       .  S
C750        F754   1.384       .  S
C750        F755   1.383       .  S
C750        F756   1.385       .  S
C757        C758   1.406       .  A
C757        C762   1.408       .  A
C757        H764   1.083       .  S
C758        C759   1.419       .  A
C759        C760   1.410       .  A
C759        C766   1.517       .  S
C760        C761   1.403       .  A
C760        H765   1.083       .  S
C761        C762   1.416       .  A
C762        C763   1.519       .  S
C763        F767   1.384       .  S
C763        F768   1.383       .  S
C763        F769   1.383       .  S
C766        F770   1.383       .  S
C766        F771   1.384       .  S
C766        F772   1.385       .  S
C773        C774   1.405       .  A
C773        C778   1.402       .  A
C773        H780   1.082       .  S
C774        C775   1.421       .  A
C775        C776   1.408       .  A
C775        C782   1.520       .  S
C776        C777   1.405       .  A
C776        H781   1.082       .  S
C777        C778   1.419       .  A
C778        C779   1.522       .  S
C779        F783   1.385       .  S
C779        F784   1.383       .  S
C779        F785   1.383       .  S
C782        F786   1.383       .  S
C782        F787   1.383       .  S
C782        F788   1.385       .  S
C789        C790   1.404       .  A
C789        C794   1.410       .  A
C789        H796   1.082       .  S
C790        C791   1.425       .  A
C791        C792   1.406       .  A
C791        C798   1.521       .  S
C792        C793   1.402       .  A
C792        H797   1.082       .  S
C793        C794   1.426       .  A
C794        C795   1.522   1_545  S
C795        F799   1.385       .  S
C795        F800   1.384       .  S
C795        F801   1.383       .  S
C798        F802   1.382       .  S
C798        F803   1.383       .  S
C798        F804   1.385       .  S
C805        C806   1.403       .  A
C805        C810   1.404       .  A
C805        H812   1.082       .  S
C806        C807   1.420       .  A
C807        C808   1.409       .  A
C807        C814   1.521       .  S
C808        C809   1.408       .  A
C808        H813   1.082       .  S
C809        C810   1.426       .  A
C810        C811   1.523       .  S
C811        F815   1.385       .  S
C811        F816   1.384       .  S
C811        F817   1.383       .  S
C814        F818   1.383       .  S
C814        F819   1.384       .  S
C814        F820   1.384       .  S
C821        C822   1.403       .  A
C821        C826   1.404       .  A
C821        H828   1.084       .  S
C822        C823   1.418       .  A
C823        C824   1.412       .  A
C823        C830   1.516       .  S
C824        C825   1.402       .  A
C824        H829   1.083       .  S
C825        C826   1.415       .  A
C826        C827   1.520       .  S
C827        F831   1.385       .  S
C827        F832   1.382       .  S
C827        F833   1.383       .  S
C830        F834   1.383       .  S
C830        F835   1.383   1_545  S
C830        F836   1.385   1_545  S
C837        C838   1.402       .  A
C837        C842   1.406       .  A
C837        H844   1.082       .  S
C838        C839   1.418       .  A
C839        C840   1.405       .  A
C839        C846   1.520       .  S
C840        C841   1.404       .  A
C840        H845   1.083       .  S
C841        C842   1.421       .  A
C842        C843   1.520       .  S
C843        F847   1.385       .  S
C843        F848   1.383       .  S
C843        F849   1.383       .  S
C846        F850   1.384       .  S
C846        F851   1.382       .  S
C846        F852   1.385       .  S
C853        C854   1.410       .  A
C853        C858   1.410       .  A
C853        H860   1.083       .  S
C854        C855   1.425       .  A
C855        C856   1.410       .  A
C855        C862   1.519       .  S
C856        C857   1.402       .  A
C856        H861   1.084       .  S
C857        C858   1.414       .  A
C858        C859   1.518       .  S
C859        F863   1.384   1_545  S
C859        F864   1.383   1_554  S
C859        F865   1.384   1_554  S
C862        F866   1.384       .  S
C862        F867   1.383       .  S
C862        F868   1.385       .  S
C869        C870   1.411       .  A
C869        C874   1.411       .  A
C869        H876   1.082       .  S
C870        C871   1.417       .  A
C871        C872   1.406       .  A
C871        C878   1.519       .  S
C872        C873   1.409       .  A
C872        H877   1.082       .  S
C873        C874   1.419       .  A
C874        C875   1.520       .  S
C875        F879   1.385       .  S
C875        F880   1.383       .  S
C875        F881   1.383       .  S
C878        F882   1.383       .  S
C878        F883   1.382       .  S
C878        F884   1.385       .  S
C885        C886   1.404       .  A
C885        C890   1.406       .  A
C885        H892   1.082   1_545  S
C886        C887   1.423       .  A
C887        C888   1.408       .  A
C887        C894   1.522       .  S
C888        C889   1.405       .  A
C888        H893   1.082       .  S
C889        C890   1.421       .  A
C890        C891   1.521   1_545  S
C891        F895   1.385       .  S
C891        F896   1.384   1_565  S
C891        F897   1.382       .  S
C894        F898   1.383       .  S
C894        F899   1.384       .  S
C894        F900   1.385       .  S
C901        C902   1.403       .  A
C901        C906   1.405       .  A
C901        H908   1.082       .  S
C902        C903   1.417       .  A
C903        C904   1.404       .  A
C903        C910   1.521       .  S
C904        C905   1.405       .  A
C904        H909   1.082       .  S
C905        C906   1.420       .  A
C906        C907   1.520       .  S
C907        F911   1.385       .  S
C907        F912   1.384       .  S
C907        F913   1.382       .  S
C910        F914   1.383       .  S
C910        F915   1.384       .  S
C910        F916   1.384       .  S
C917        C918   1.409       .  A
C917        C922   1.410       .  A
C917        H924   1.083       .  S
C918        C919   1.419       .  A
C919        C920   1.409       .  A
C919        C926   1.520       .  S
C920        C921   1.411       .  A
C920        H925   1.082       .  S
C921        C922   1.420       .  A
C922        C923   1.520       .  S
C923        F927   1.385       .  S
C923        F928   1.383       .  S
C923        F929   1.383       .  S
C926        F930   1.383       .  S
C926        F931   1.383   1_545  S
C926        F932   1.385       .  S
C933        C934   1.407       .  A
C933        C938   1.404       .  A
C933        H940   1.082       .  S
C934        C935   1.422   1_545  A
C935        C936   1.407   1_565  A
C935        C942   1.521       .  S
C936        C937   1.406       .  A
C936        H941   1.082   1_545  S
C937        C938   1.418       .  A
C938        C939   1.521       .  S
C939        F943   1.385       .  S
C939        F944   1.384       .  S
C939        F945   1.383       .  S
C942        F946   1.383       .  S
C942        F947   1.383       .  S
C942        F948   1.385       .  S
C949        C950   1.404       .  A
C949        C954   1.411       .  A
C949        H956   1.083       .  S
C950        C951   1.415       .  A
C951        C952   1.407       .  A
C951        C958   1.519       .  S
C952        C953   1.402       .  A
C952        H957   1.083       .  S
C953        C954   1.416       .  A
C954        C955   1.516       .  S
C955        F959   1.385       .  S
C955        F960   1.383       .  S
C955        F961   1.384       .  S
C958        F962   1.383       .  S
C958        F963   1.382       .  S
C958        F964   1.385       .  S
C965        C966   1.407       .  A
C965        C970   1.406       .  A
C965        H972   1.083       .  S
C966        C967   1.422       .  A
C967        C968   1.404       .  A
C967        C974   1.521       .  S
C968        C969   1.402       .  A
C968        H973   1.082       .  S
C969        C970   1.416       .  A
C970        C971   1.520       .  S
C971        F975   1.384       .  S
C971        F976   1.384       .  S
C971        F977   1.383       .  S
C974        F978   1.383       .  S
C974        F979   1.383       .  S
C974        F980   1.385       .  S
C981        C982   1.403       .  A
C981        C986   1.406       .  A
C981        H988   1.082       .  S
C982        C983   1.419       .  A
C983        C984   1.406       .  A
C983        C990   1.521       .  S
C984        C985   1.406       .  A
C984        H989   1.082       .  S
C985        C986   1.421       .  A
C986        C987   1.520       .  S
C987        F991   1.385       .  S
C987        F992   1.383       .  S
C987        F993   1.383       .  S
C990        F994   1.382       .  S
C990        F995   1.384       .  S
C990        F996   1.385       .  S
C997        C998   1.408       .  A
C997       C1002   1.413       .  A
C997       H1004   1.083       .  S
C998        C999   1.418       .  A
C999       C1000   1.407       .  A
C999       C1006   1.521       .  S
C1000      C1001   1.409       .  A
C1000      H1005   1.082       .  S
C1001      C1002   1.421       .  A
C1002      C1003   1.519       .  S
C1003      F1007   1.384       .  S
C1003      F1008   1.383       .  S
C1003      F1009   1.383       .  S
C1006      F1010   1.382   1_545  S
C1006      F1011   1.384       .  S
C1006      F1012   1.385   1_545  S
C1013      C1014   1.404       .  A
C1013      C1018   1.406       .  A
C1013      H1020   1.083       .  S
C1014      C1015   1.419       .  A
C1015      C1016   1.405       .  A
C1015      C1022   1.522       .  S
C1016      C1017   1.404       .  A
C1016      H1021   1.083       .  S
C1017      C1018   1.418       .  A
C1018      C1019   1.520       .  S
C1019      F1023   1.384       .  S
C1019      F1024   1.383       .  S
C1019      F1025   1.384       .  S
C1022      F1026   1.384       .  S
C1022      F1027   1.382       .  S
C1022      F1028   1.385       .  S
C1029      C1030   1.404       .  A
C1029      C1034   1.404       .  A
C1029      H1036   1.083       .  S
C1030      C1031   1.420       .  A
C1031      C1032   1.408       .  A
C1031      C1038   1.520       .  S
C1032      C1033   1.404       .  A
C1032      H1037   1.083       .  S
C1033      C1034   1.420       .  A
C1034      C1035   1.522       .  S
C1035      F1039   1.385       .  S
C1035      F1040   1.384       .  S
C1035      F1041   1.383       .  S
C1038      F1042   1.383       .  S
C1038      F1043   1.384       .  S
C1038      F1044   1.384       .  S
C1045      C1046   1.403       .  A
C1045      C1050   1.411       .  A
C1045      H1052   1.084       .  S
C1046      C1047   1.416       .  A
C1047      C1048   1.408       .  A
C1047      C1054   1.520       .  S
C1048      C1049   1.408       .  A
C1048      H1053   1.083       .  S
C1049      C1050   1.423       .  A
C1050      C1051   1.519       .  S
C1051      F1055   1.385       .  S
C1051      F1056   1.383       .  S
C1051      F1057   1.383       .  S
C1054      F1058   1.383   1_545  S
C1054      F1059   1.384       .  S
C1054      F1060   1.384       .  S
C1061      C1062   1.406       .  A
C1061      C1066   1.406       .  A
C1061      H1068   1.082       .  S
C1062      C1063   1.424       .  A
C1063      C1064   1.407       .  A
C1063      C1070   1.522       .  S
C1064      C1065   1.404       .  A
C1064      H1069   1.082       .  S
C1065      C1066   1.419       .  A
C1066      C1067   1.520       .  S
C1067      F1071   1.384       .  S
C1067      F1072   1.384       .  S
C1067      F1073   1.383       .  S
C1070      F1074   1.383       .  S
C1070      F1075   1.384       .  S
C1070      F1076   1.385       .  S
C1077      C1078   1.404       .  A
C1077      C1082   1.405       .  A
C1077      H1084   1.084       .  S
C1078      C1079   1.419       .  A
C1079      C1080   1.410       .  A
C1079      C1086   1.518       .  S
C1080      C1081   1.403       .  A
C1080      H1085   1.083       .  S
C1081      C1082   1.415       .  A
C1082      C1083   1.517   1_545  S
C1083      F1087   1.385       .  S
C1083      F1088   1.382   1_554  S
C1083      F1089   1.384   1_554  S
C1086      F1090   1.384       .  S
C1086      F1091   1.383       .  S
C1086      F1092   1.385       .  S
C1093      C1094   1.405       .  A
C1093      C1098   1.409       .  A
C1093      H1100   1.083       .  S
C1094      C1095   1.426       .  A
C1095      C1096   1.403       .  A
C1095      C1102   1.523       .  S
C1096      C1097   1.398       .  A
C1096      H1101   1.083       .  S
C1097      C1098   1.420       .  A
C1098      C1099   1.520       .  S
C1099      F1103   1.385       .  S
C1099      F1104   1.382       .  S
C1099      F1105   1.384       .  S
C1102      F1106   1.383       .  S
C1102      F1107   1.384       .  S
C1102      F1108   1.385       .  S
C1109      C1110   1.406       .  A
C1109      C1114   1.405       .  A
C1109      H1116   1.082       .  S
C1110      C1111   1.421       .  A
C1111      C1112   1.405       .  A
C1111      C1118   1.521       .  S
C1112      C1113   1.406       .  A
C1112      H1117   1.082       .  S
C1113      C1114   1.421       .  A
C1114      C1115   1.522       .  S
C1115      F1119   1.385       .  S
C1115      F1120   1.383       .  S
C1115      F1121   1.384       .  S
C1118      F1122   1.383       .  S
C1118      F1123   1.383       .  S
C1118      F1124   1.385       .  S
C1125      C1126   1.406       .  A
C1125      C1130   1.407       .  A
C1125      H1132   1.083       .  S
C1126      C1127   1.420       .  A
C1127      C1128   1.406       .  A
C1127      C1134   1.521       .  S
C1128      C1129   1.405       .  A
C1128      H1133   1.083       .  S
C1129      C1130   1.420       .  A
C1130      C1131   1.520       .  S
C1131      F1135   1.385       .  S
C1131      F1136   1.384       .  S
C1131      F1137   1.383       .  S
C1134      F1138   1.383       .  S
C1134      F1139   1.384       .  S
C1134      F1140   1.384       .  S
C1141      C1142   1.405       .  A
C1141      C1146   1.407       .  A
C1141      H1148   1.082       .  S
C1142      C1143   1.418       .  A
C1143      C1144   1.405       .  A
C1143      C1150   1.520       .  S
C1144      C1145   1.406       .  A
C1144      H1149   1.082       .  S
C1145      C1146   1.421       .  A
C1146      C1147   1.520       .  S
C1147      F1151   1.385       .  S
C1147      F1152   1.383       .  S
C1147      F1153   1.383       .  S
C1150      F1154   1.384       .  S
C1150      F1155   1.382       .  S
C1150      F1156   1.385       .  S
C1157      C1158   1.410       .  A
C1157      C1162   1.409       .  A
C1157      H1164   1.082       .  S
C1158      C1159   1.422       .  A
C1159      C1160   1.412       .  A
C1159      C1166   1.521       .  S
C1160      C1161   1.410       .  A
C1160      H1165   1.083       .  S
C1161      C1162   1.419       .  A
C1162      C1163   1.519       .  S
C1163      F1167   1.385       .  S
C1163      F1168   1.383       .  S
C1163      F1169   1.383       .  S
C1166      F1170   1.383       .  S
C1166      F1171   1.383       .  S
C1166      F1172   1.385       .  S
C1173      C1174   1.405       .  A
C1173      C1178   1.404       .  A
C1173      H1180   1.082       .  S
C1174      C1175   1.422       .  A
C1175      C1176   1.406       .  A
C1175      C1182   1.522       .  S
C1176      C1177   1.406       .  A
C1176      H1181   1.082       .  S
C1177      C1178   1.419       .  A
C1178      C1179   1.521       .  S
C1179      F1183   1.385       .  S
C1179      F1184   1.383       .  S
C1179      F1185   1.384       .  S
C1182      F1186   1.383       .  S
C1182      F1187   1.383       .  S
C1182      F1188   1.385       .  S
C1189      C1190   1.404       .  A
C1189      C1194   1.402       .  A
C1189      H1196   1.082       .  S
C1190      C1191   1.421       .  A
C1191      C1192   1.407       .  A
C1191      C1198   1.521       .  S
C1192      C1193   1.404       .  A
C1192      H1197   1.082       .  S
C1193      C1194   1.420       .  A
C1194      C1195   1.522       .  S
C1195      F1199   1.385       .  S
C1195      F1200   1.383       .  S
C1195      F1201   1.384       .  S
C1198      F1202   1.384       .  S
C1198      F1203   1.383       .  S
C1198      F1204   1.384       .  S
C1205      C1206   1.405       .  A
C1205      C1210   1.412       .  A
C1205      H1212   1.083       .  S
C1206      C1207   1.420       .  A
C1207      C1208   1.409       .  A
C1207      C1214   1.521       .  S
C1208      C1209   1.406       .  A
C1208      H1213   1.083       .  S
C1209      C1210   1.420       .  A
C1210      C1211   1.518       .  S
C1211      F1215   1.385       .  S
C1211      F1216   1.384       .  S
C1211      F1217   1.383       .  S
C1214      F1218   1.384       .  S
C1214      F1219   1.383       .  S
C1214      F1220   1.384       .  S
C1221      C1222   1.405       .  A
C1221      C1226   1.405       .  A
C1221      H1228   1.082       .  S
C1222      C1223   1.423       .  A
C1223      C1224   1.408       .  A
C1223      C1230   1.521       .  S
C1224      C1225   1.406       .  A
C1224      H1229   1.082       .  S
C1225      C1226   1.421       .  A
C1226      C1227   1.521       .  S
C1227      F1231   1.385       .  S
C1227      F1232   1.383       .  S
C1227      F1233   1.384       .  S
C1230      F1234   1.383       .  S
C1230      F1235   1.383       .  S
C1230      F1236   1.385       .  S
C1237      C1238   1.410       .  A
C1237      C1242   1.411       .  A
C1237      H1244   1.082       .  S
C1238      C1239   1.418       .  A
C1239      C1240   1.407       .  A
C1239      C1246   1.519       .  S
C1240      C1241   1.409       .  A
C1240      H1245   1.082       .  S
C1241      C1242   1.419       .  A
C1242      C1243   1.520       .  S
C1243      F1247   1.385       .  S
C1243      F1248   1.383       .  S
C1243      F1249   1.383       .  S
C1246      F1250   1.383       .  S
C1246      F1251   1.383       .  S
C1246      F1252   1.385       .  S
C1253      C1254   1.406       .  A
C1253      C1258   1.405       .  A
C1253      H1260   1.082       .  S
C1254      C1255   1.421       .  A
C1255      C1256   1.405       .  A
C1255      C1262   1.522       .  S
C1256      C1257   1.407       .  A
C1256      H1261   1.082       .  S
C1257      C1258   1.422       .  A
C1258      C1259   1.522       .  S
C1259      F1263   1.385       .  S
C1259      F1264   1.383       .  S
C1259      F1265   1.383       .  S
C1262      F1266   1.383       .  S
C1262      F1267   1.383       .  S
C1262      F1268   1.385       .  S
C1269      C1270   1.403       .  A
C1269      C1274   1.403       .  A
C1269      H1276   1.085       .  S
C1270      C1271   1.418       .  A
C1271      C1272   1.412       .  A
C1271      C1278   1.516       .  S
C1272      C1273   1.405       .  A
C1272      H1277   1.083       .  S
C1273      C1274   1.417       .  A
C1274      C1275   1.516       .  S
C1275      F1279   1.384       .  S
C1275      F1280   1.383       .  S
C1275      F1281   1.383       .  S
C1278      F1282   1.383       .  S
C1278      F1283   1.383       .  S
C1278      F1284   1.385       .  S
C1285      C1286   1.403       .  A
C1285      C1290   1.404       .  A
C1285      H1292   1.082       .  S
C1286      C1287   1.420       .  A
C1287      C1288   1.406       .  A
C1287      C1294   1.521       .  S
C1288      C1289   1.405       .  A
C1288      H1293   1.082       .  S
C1289      C1290   1.420       .  A
C1290      C1291   1.521       .  S
C1291      F1295   1.385       .  S
C1291      F1296   1.383       .  S
C1291      F1297   1.384       .  S
C1294      F1298   1.383       .  S
C1294      F1299   1.383       .  S
C1294      F1300   1.385       .  S
C1301      C1302   1.403   1_554  A
C1301      C1306   1.408       .  A
C1301      H1308   1.084   1_554  S
C1302      C1303   1.417   1_556  A
C1303      C1304   1.405       .  A
C1303      C1310   1.516   1_554  S
C1304      C1305   1.401       .  A
C1304      H1309   1.085       .  S
C1305      C1306   1.416       .  A
C1306      C1307   1.517       .  S
C1307      F1311   1.385       .  S
C1307      F1312   1.383       .  S
C1307      F1313   1.382       .  S
C1310      F1314   1.383       .  S
C1310      F1315   1.383   1_556  S
C1310      F1316   1.383   1_556  S
C1317      C1318   1.409       .  A
C1317      C1322   1.408       .  A
C1317      H1324   1.083       .  S
C1318      C1319   1.418       .  A
C1319      C1320   1.410       .  A
C1319      C1326   1.520       .  S
C1320      C1321   1.411       .  A
C1320      H1325   1.083       .  S
C1321      C1322   1.419       .  A
C1322      C1323   1.520       .  S
C1323      F1327   1.385       .  S
C1323      F1328   1.383       .  S
C1323      F1329   1.383       .  S
C1326      F1330   1.384       .  S
C1326      F1331   1.383       .  S
C1326      F1332   1.384       .  S
C1333      C1334   1.405       .  A
C1333      C1338   1.405       .  A
C1333      H1340   1.082       .  S
C1334      C1335   1.421       .  A
C1335      C1336   1.408       .  A
C1335      C1342   1.521       .  S
C1336      C1337   1.406       .  A
C1336      H1341   1.082       .  S
C1337      C1338   1.421       .  A
C1338      C1339   1.522       .  S
C1339      F1343   1.385       .  S
C1339      F1344   1.383       .  S
C1339      F1345   1.384       .  S
C1342      F1346   1.383       .  S
C1342      F1347   1.383       .  S
C1342      F1348   1.385       .  S
C1349      C1350   1.405       .  A
C1349      C1354   1.404       .  A
C1349      H1356   1.082       .  S
C1350      C1351   1.419       .  A
C1351      C1352   1.403       .  A
C1351      C1358   1.520       .  S
C1352      C1353   1.403       .  A
C1352      H1357   1.083       .  S
C1353      C1354   1.417       .  A
C1354      C1355   1.520   1_455  S
C1355      F1359   1.385       .  S
C1355      F1360   1.383       .  S
C1355      F1361   1.383   1_655  S
C1358      F1362   1.384       .  S
C1358      F1363   1.383       .  S
C1358      F1364   1.385       .  S
C1365      C1366   1.405       .  A
C1365      C1370   1.407       .  A
C1365      H1372   1.083       .  S
C1366      C1367   1.421       .  A
C1367      C1368   1.405       .  A
C1367      C1374   1.521       .  S
C1368      C1369   1.404       .  A
C1368      H1373   1.083       .  S
C1369      C1370   1.421       .  A
C1370      C1371   1.521       .  S
C1371      F1375   1.385       .  S
C1371      F1376   1.383       .  S
C1371      F1377   1.384       .  S
C1374      F1378   1.384       .  S
C1374      F1379   1.383       .  S
C1374      F1380   1.385       .  S
C1381      C1382   1.405       .  A
C1381      C1386   1.405       .  A
C1381      H1388   1.083       .  S
C1382      C1383   1.423       .  A
C1383      C1384   1.406       .  A
C1383      C1390   1.521       .  S
C1384      C1385   1.403       .  A
C1384      H1389   1.082       .  S
C1385      C1386   1.420       .  A
C1386      C1387   1.521       .  S
C1387      F1391   1.385       .  S
C1387      F1392   1.382       .  S
C1387      F1393   1.384       .  S
C1390      F1394   1.383       .  S
C1390      F1395   1.383       .  S
C1390      F1396   1.385       .  S
C1397      C1398   1.410       .  A
C1397      C1402   1.407       .  A
C1397      H1404   1.082       .  S
C1398      C1399   1.423   1_655  A
C1399      C1400   1.412       .  A
C1399      C1406   1.520       .  S
C1400      C1401   1.408       .  A
C1400      H1405   1.083       .  S
C1401      C1402   1.418   1_455  A
C1402      C1403   1.521       .  S
C1403      F1407   1.384       .  S
C1403      F1408   1.383       .  S
C1403      F1409   1.384   1_655  S
C1406      F1410   1.383   1_455  S
C1406      F1411   1.384       .  S
C1406      F1412   1.385       .  S
C1413      C1414   1.403       .  A
C1413      C1418   1.406       .  A
C1413      H1420   1.083       .  S
C1414      C1415   1.417   1_655  A
C1415      C1416   1.405       .  A
C1415      C1422   1.520       .  S
C1416      C1417   1.404   1_455  A
C1416      H1421   1.082       .  S
C1417      C1418   1.421       .  A
C1418      C1419   1.521       .  S
C1419      F1423   1.385       .  S
C1419      F1424   1.382       .  S
C1419      F1425   1.384       .  S
C1422      F1426   1.384       .  S
C1422      F1427   1.382       .  S
C1422      F1428   1.385       .  S
C1429      C1430   1.405       .  A
C1429      C1434   1.401       .  A
C1429      H1436   1.081       .  S
C1430      C1431   1.418       .  A
C1431      C1432   1.404       .  A
C1431      C1438   1.520       .  S
C1432      C1433   1.405       .  A
C1432      H1437   1.082       .  S
C1433      C1434   1.417       .  A
C1434      C1435   1.521       .  S
C1435      F1439   1.385       .  S
C1435      F1440   1.383       .  S
C1435      F1441   1.382       .  S
C1438      F1442   1.383       .  S
C1438      F1443   1.383       .  S
C1438      F1444   1.385       .  S
C1445      C1446   1.404       .  A
C1445      C1450   1.404       .  A
C1445      H1452   1.082       .  S
C1446      C1447   1.420       .  A
C1447      C1448   1.409       .  A
C1447      C1454   1.520       .  S
C1448      C1449   1.406       .  A
C1448      H1453   1.083       .  S
C1449      C1450   1.418       .  A
C1450      C1451   1.520   1_455  S
C1451      F1455   1.385       .  S
C1451      F1456   1.382       .  S
C1451      F1457   1.383   1_655  S
C1454      F1458   1.384       .  S
C1454      F1459   1.382       .  S
C1454      F1460   1.385       .  S
C1461      C1462   1.406       .  A
C1461      C1466   1.404       .  A
C1461      H1468   1.082       .  S
C1462      C1463   1.423       .  A
C1463      C1464   1.405       .  A
C1463      C1470   1.522       .  S
C1464      C1465   1.405       .  A
C1464      H1469   1.082       .  S
C1465      C1466   1.422       .  A
C1466      C1467   1.523       .  S
C1467      F1471   1.385       .  S
C1467      F1472   1.383       .  S
C1467      F1473   1.384       .  S
C1470      F1474   1.383       .  S
C1470      F1475   1.383       .  S
C1470      F1476   1.385       .  S
C1477      C1478   1.405   1_655  A
C1477      C1482   1.412       .  A
C1477      H1484   1.084       .  S
C1478      C1479   1.418       .  A
C1479      C1480   1.407       .  A
C1479      C1486   1.518       .  S
C1480      C1481   1.405       .  A
C1480      H1485   1.084       .  S
C1481      C1482   1.421   1_455  A
C1482      C1483   1.518       .  S
C1483      F1487   1.385       .  S
C1483      F1488   1.383       .  S
C1483      F1489   1.383       .  S
C1486      F1490   1.382       .  S
C1486      F1491   1.383       .  S
C1486      F1492   1.385       .  S
C1493      C1494   1.406   1_455  A
C1493      C1498   1.409       .  A
C1493      H1500   1.083       .  S
C1494      C1495   1.430       .  A
C1495      C1496   1.410       .  A
C1495      C1502   1.523       .  S
C1496      C1497   1.400   1_655  A
C1496      H1501   1.083       .  S
C1497      C1498   1.421       .  A
C1498      C1499   1.520       .  S
C1499      F1503   1.385       .  S
C1499      F1504   1.382       .  S
C1499      F1505   1.384       .  S
C1502      F1506   1.384       .  S
C1502      F1507   1.384       .  S
C1502      F1508   1.385       .  S
C1509      C1510   1.403   1_455  A
C1509      C1514   1.405   1_455  A
C1509      H1516   1.082       .  S
C1510      C1511   1.420       .  A
C1511      C1512   1.407       .  A
C1511      C1518   1.521       .  S
C1512      C1513   1.406       .  A
C1512      H1517   1.082       .  S
C1513      C1514   1.422       .  A
C1514      C1515   1.520   1_655  S
C1515      F1519   1.385       .  S
C1515      F1520   1.382       .  S
C1515      F1521   1.383       .  S
C1518      F1522   1.383       .  S
C1518      F1523   1.384       .  S
C1518      F1524   1.385       .  S
C1525      C1526   1.405       .  A
C1525      C1530   1.407       .  A
C1525      H1532   1.082       .  S
C1526      C1527   1.419       .  A
C1527      C1528   1.406       .  A
C1527      C1534   1.520       .  S
C1528      C1529   1.406       .  A
C1528      H1533   1.082       .  S
C1529      C1530   1.421       .  A
C1530      C1531   1.521       .  S
C1531      F1535   1.385       .  S
C1531      F1536   1.384       .  S
C1531      F1537   1.383       .  S
C1534      F1538   1.383       .  S
C1534      F1539   1.384       .  S
C1534      F1540   1.384       .  S
C1541      C1542   1.403   1_655  A
C1541      C1546   1.403       .  A
C1541      H1548   1.084       .  S
C1542      C1543   1.419       .  A
C1543      C1544   1.412       .  A
C1543      C1550   1.515       .  S
C1544      C1545   1.402       .  A
C1544      H1549   1.083       .  S
C1545      C1546   1.414   1_455  A
C1546      C1547   1.519       .  S
C1547      F1551   1.385       .  S
C1547      F1552   1.383       .  S
C1547      F1553   1.382       .  S
C1550      F1554   1.383       .  S
C1550      F1555   1.382       .  S
C1550      F1556   1.384       .  S
C1557      C1558   1.404       .  A
C1557      C1562   1.405       .  A
C1557      H1564   1.083       .  S
C1558      C1559   1.418       .  A
C1559      C1560   1.403       .  A
C1559      C1566   1.521       .  S
C1560      C1561   1.405       .  A
C1560      H1565   1.082       .  S
C1561      C1562   1.420       .  A
C1562      C1563   1.521       .  S
C1563      F1567   1.385       .  S
C1563      F1568   1.383       .  S
C1563      F1569   1.383       .  S
C1566      F1570   1.383       .  S
C1566      F1571   1.384       .  S
C1566      F1572   1.385       .  S
C1573      C1574   1.406       .  A
C1573      C1578   1.405       .  A
C1573      H1580   1.082       .  S
C1574      C1575   1.422       .  A
C1575      C1576   1.406       .  A
C1575      C1582   1.522       .  S
C1576      C1577   1.406       .  A
C1576      H1581   1.082       .  S
C1577      C1578   1.421       .  A
C1578      C1579   1.522       .  S
C1579      F1583   1.385       .  S
C1579      F1584   1.383       .  S
C1579      F1585   1.383       .  S
C1582      F1586   1.383       .  S
C1582      F1587   1.384       .  S
C1582      F1588   1.385       .  S
C1589      C1590   1.402   1_455  A
C1589      C1594   1.404       .  A
C1589      H1596   1.084       .  S
C1590      C1591   1.417       .  A
C1591      C1592   1.411       .  A
C1591      C1598   1.518       .  S
C1592      C1593   1.409       .  A
C1592      H1597   1.082       .  S
C1593      C1594   1.422   1_655  A
C1594      C1595   1.519       .  S
C1595      F1599   1.385       .  S
C1595      F1600   1.383       .  S
C1595      F1601   1.384       .  S
C1598      F1602   1.383   1_554  S
C1598      F1603   1.383   1_554  S
C1598      F1604   1.385       .  S
C1605      C1606   1.407       .  A
C1605      C1610   1.409       .  A
C1605      H1612   1.083       .  S
C1606      C1607   1.415   1_455  A
C1607      C1608   1.405       .  A
C1607      C1614   1.520       .  S
C1608      C1609   1.411   1_655  A
C1608      H1613   1.082       .  S
C1609      C1610   1.420       .  A
C1610      C1611   1.519       .  S
C1611      F1615   1.385       .  S
C1611      F1616   1.383       .  S
C1611      F1617   1.383       .  S
C1614      F1618   1.383       .  S
C1614      F1619   1.383       .  S
C1614      F1620   1.385       .  S
