geometry optimzed in LAMMPS
_audit_creation_date              2020-11-30 
_audit_creation_method            'lammps2cif' 
_symmetry_space_group_name_H-M    'P1' 
_symmetry_Int_Tables_number       1 
_symmetry_cell_setting            triclinic 
loop_ 
_symmetry_equiv_pos_as_xyz 
  x,y,z 
_cell_length_a                    23.61467289 
_cell_length_b                    23.616214509813105 
_cell_length_c                    50.83376413791294 
_cell_angle_alpha                 90.06219478803024 
_cell_angle_beta                  89.99354702076135 
_cell_angle_gamma                 90.12740929712113 
loop_ 
_atom_site_label 
_atom_site_type_symbol 
_atom_site_fract_x 
_atom_site_fract_y 
_atom_site_fract_z 
_atom_site_charge 
C1          C  0.00240070  0.50172422  0.74899459     0.00400
N2          N  0.33976225  0.46809362  0.65348657    -0.33800
N3          N  0.25338289  0.49517076  0.69389410    -0.56900
N4          N  0.16587455  0.49229116  0.65339560    -0.33700
N5          N  0.25220423  0.46877842  0.61406255    -0.54300
C6          C  0.37368301  0.48535236  0.67345577     0.29800
C7          C  0.37126048  0.46806639  0.63106094     0.29800
C8          C  0.13508108  0.51060423  0.67416996     0.29800
C9          C  0.13811382  0.50772433  0.63111908     0.29800
C10         C  0.30023855  0.49017857  0.70946173     0.38500
C11         C  0.20657748  0.49486956  0.70974528     0.38500
C12         C  0.29415639  0.44587936  0.59964936     0.38500
C13         C  0.20529498  0.46578602  0.59911102     0.38500
C14         C  0.42777844  0.49502244  0.66357619    -0.19000
C15         C  0.42617950  0.48432588  0.63691173    -0.19000
C16         C  0.08647799  0.53700315  0.66499409    -0.19000
C17         C  0.08865308  0.53565500  0.63785215    -0.19000
C18         C  0.28291536  0.48798513  0.73552733    -0.20100
C19         C  0.22412032  0.49045667  0.73568976    -0.20100
C20         C  0.27344841  0.42671589  0.57568199    -0.20100
C21         C  0.21709147  0.43968548  0.57527859    -0.20100
C22         C  0.35825695  0.48970193  0.70050887    -0.15400
C23         C  0.35172443  0.45245863  0.60564426    -0.15400
C24         C  0.15469274  0.49389679  0.60507089    -0.15400
C25         C  0.14886842  0.50248688  0.70110942    -0.15400
H26         H  0.46476637  0.50834442  0.67447366     0.17500
H27         H  0.46146839  0.48790798  0.62341766     0.17500
H28         H  0.05345070  0.55632199  0.67667518     0.17500
H29         H  0.05696889  0.55243352  0.62461665     0.17500
H30         H  0.30985946  0.48490794  0.75268514     0.15800
H31         H  0.19741480  0.49026538  0.75299285     0.15800
H32         H  0.29709532  0.40829303  0.55957485     0.15800
H33         H  0.18858936  0.43268271  0.55891725     0.15800
H34         H  0.29889712  0.45236011  0.65552521     0.29000
H35         H  0.20090511  0.46592865  0.65461069     0.29000
N36         N  0.33458640  0.02968152  0.34657374    -0.33800
N37         N  0.24736060  0.02688028  0.38640950    -0.54300
N38         N  0.16126500  0.00353363  0.34755578    -0.33700
N39         N  0.24819458  0.00301461  0.30653827    -0.54300
C40         C  0.36590876  0.02860020  0.36901434     0.29800
C41         C  0.36812835  0.01206632  0.32654746     0.29800
C42         C  0.13395975  0.98666381  0.36975790     0.29800
C43         C  0.13044733  0.98588553  0.32669027     0.29800
C44         C  0.28904274  0.05180679  0.40027342     0.38500
C45         C  0.20063495  0.02967130  0.40150094     0.38500
C46         C  0.29457544  0.00994530  0.29079270     0.38500
C47         C  0.20093125  0.00534431  0.29105884     0.38500
C48         C  0.42033942  0.01087940  0.36316889    -0.19000
C49         C  0.42180843  0.00064192  0.33643011    -0.19000
C50         C  0.08486593  0.95804604  0.36286828    -0.19000
C51         C  0.08233127  0.95810319  0.33569603    -0.19000
C52         C  0.26827937  0.07211892  0.42402801    -0.20100
C53         C  0.21219936  0.05756746  0.42490097    -0.20100
C54         C  0.27649972  0.01530163  0.26495431    -0.20100
C55         C  0.21768382  0.01294306  0.26515111    -0.20100
C56         C  0.34656870  0.04492523  0.39436116    -0.15400
C57         C  0.35276297  0.00967063  0.29944968    -0.15400
C58         C  0.14348456  0.99681679  0.29989422    -0.15400
C59         C  0.15031822  0.00060946  0.39583368    -0.15400
H60         H  0.45541559  0.00618226  0.37669587     0.17500
H61         H  0.45842565  0.98662165  0.32547561     0.17500
H62         H  0.05348468  0.94026370  0.37601965     0.17500
H63         H  0.04925929  0.93914591  0.32387025     0.17500
H64         H  0.29186855  0.09214892  0.43976091     0.15800
H65         H  0.18373183  0.06491743  0.44123407     0.15800
H66         H  0.30293460  0.02059450  0.24773565     0.15800
H67         H  0.19042234  0.01540281  0.24808033     0.15800
H68         H  0.29422508  0.04669863  0.34462545     0.29000
H69         H  0.19567753  0.03091816  0.34640628     0.29000
O70         O  0.08397019  0.46196604  0.02574333    -0.68900
O71         O  0.04499790  0.03157450  0.97157650    -0.69100
O72         O  0.05063690  0.03254044  0.02580958    -0.69000
O73         O  0.07627673  0.45757209  0.97148833    -0.69000
O74         O  0.49172715  0.43321101  0.97433835    -0.69000
O75         O  0.46657530  0.06793798  0.02718887    -0.69000
O76         O  0.46091662  0.06548054  0.97312369    -0.68900
O77         O  0.49967693  0.43625495  0.02831508    -0.69100
V78         V  0.06487136  0.51305203  0.99804154     1.35200
V79         V  0.48035536  0.48791061  0.00112473     1.35200
C80         C  0.54914503  0.43737619  0.03776632     0.80300
C81         C  0.50824669  0.06175856  0.96164011     0.80400
C82         C  0.51583242  0.06457144  0.03678946     0.80200
C83         C  0.53843444  0.43248955  0.96224661     0.80200
N84         N  0.03227583  0.16130431  0.15422866    -0.33800
N85         N  0.01607098  0.24891222  0.19456481    -0.54300
N86         N  0.04179842  0.33675054  0.15482057    -0.33700
N87         N  0.05513104  0.24921000  0.11555907    -0.54300
C88         C  0.01113157  0.12949577  0.17414988     0.29800
C89         C  0.02500923  0.13189989  0.13142773     0.29800
C90         C  0.02046559  0.36905721  0.17450347     0.29800
C91         C  0.04003811  0.36788136  0.13229484     0.29800
C92         C  0.01642143  0.20195954  0.21027587     0.38500
C93         C  0.01831710  0.29571959  0.21036912     0.38500
C94         C  0.06647252  0.20297376  0.10098001     0.38500
C95         C  0.07414991  0.29383904  0.10161692     0.38500
C96         C  0.99125374  0.07866260  0.16389181    -0.19000
C97         C  0.99944339  0.08042592  0.13699011    -0.19000
C98         C  0.00610680  0.42166590  0.16437459    -0.19000
C99         C  0.01816400  0.42088117  0.13782553    -0.19000
C100        C  0.01829810  0.21933320  0.23633913    -0.20100
C101        C  0.01932102  0.27816566  0.23639904    -0.20100
C102        C  0.09411983  0.21811542  0.07795243    -0.20100
C103        C  0.09918579  0.27577228  0.07839832    -0.20100
C104        C  0.01151067  0.14407999  0.20138448    -0.15400
C105        C  0.04376629  0.14915430  0.10605712    -0.15400
C106        C  0.05951597  0.35010540  0.10714830    -0.15400
C107        C  0.01650148  0.35377565  0.20156388    -0.15400
H108        H  0.97240270  0.04399811  0.17467310     0.17500
H109        H  0.98878391  0.04714508  0.12318253     0.17500
H110        H  0.98854768  0.45689964  0.17509613     0.17500
H111        H  0.01199879  0.45547316  0.12419911     0.17500
H112        H  0.01814609  0.19243166  0.25356290     0.15800
H113        H  0.02030450  0.30497346  0.25367473     0.15800
H114        H  0.10692904  0.19071732  0.06195024     0.15800
H115        H  0.11646666  0.30162809  0.06275340     0.15800
H116        H  0.05520722  0.19859337  0.15654455     0.29000
H117        H  0.06128608  0.29766728  0.15723007     0.29000
C118        C  0.50207638  0.49943271  0.24949641     0.00400
N119        N  0.51276774  0.33829094  0.84508706    -0.33800
N120        N  0.51178431  0.25156862  0.80404090    -0.54300
N121        N  0.50676724  0.16364435  0.84522031    -0.33700
N122        N  0.50937916  0.24998546  0.88469416    -0.54300
C123        C  0.52610538  0.36987001  0.82376977     0.29800
C124        C  0.53020254  0.36706468  0.86678357     0.29800
C125        C  0.51897477  0.13203467  0.82381942     0.29800
C126        C  0.51998285  0.13261915  0.86685466     0.29800
C127        C  0.50283171  0.29860802  0.78898061     0.38500
C128        C  0.50013655  0.20493128  0.78906963     0.38500
C129        C  0.50023871  0.29604505  0.89960383     0.38500
C130        C  0.49559139  0.20522399  0.89973071     0.38500
C131        C  0.55179095  0.41976507  0.83206243    -0.19000
C132        C  0.55467074  0.41782855  0.85919772    -0.19000
C133        C  0.54019829  0.08003443  0.83196275    -0.19000
C134        C  0.54094095  0.08049253  0.85913270    -0.19000
C135        C  0.48637003  0.28148955  0.76401651    -0.20100
C136        C  0.48466315  0.22263210  0.76407328    -0.20100
C137        C  0.47910378  0.28068436  0.92405673    -0.20100
C138        C  0.47608971  0.22288691  0.92412865    -0.20100
C139        C  0.51225392  0.35625769  0.79731046    -0.15400
C140        C  0.52085728  0.34977357  0.89311647    -0.15400
C141        C  0.50963883  0.14948316  0.89315359    -0.15400
C142        C  0.50614752  0.14693798  0.79744710    -0.15400
H143        H  0.56723736  0.45383513  0.81978727     0.17500
H144        H  0.57188368  0.45042473  0.87188500     0.17500
H145        H  0.55335723  0.04516554  0.81958150     0.17500
H146        H  0.55424571  0.04606114  0.87172042     0.17500
H147        H  0.47695548  0.30855873  0.74742520     0.15800
H148        H  0.47369216  0.19591062  0.74752344     0.15800
H149        H  0.46945330  0.30806682  0.94053643     0.15800
H150        H  0.46359291  0.19687739  0.94066417     0.15800
H151        H  0.48768061  0.30202361  0.84487003     0.29000
H152        H  0.48412258  0.20137378  0.84491195     0.29000
O153        O  0.05598114  0.01909733  0.53020624    -0.68900
O154        O  0.46041020  0.06129021  0.47580224    -0.69100
O155        O  0.45640746  0.05267106  0.52992563    -0.69000
O156        O  0.06083685  0.02760170  0.47650078    -0.69000
O157        O  0.06588413  0.47699123  0.46966447    -0.69000
O158        O  0.46596373  0.43204885  0.52442351    -0.69000
O159        O  0.46052720  0.44156234  0.47043500    -0.68900
O160        O  0.07080046  0.46725755  0.52349968    -0.69100
V161        V  0.50918453  0.03460317  0.50285316     1.35200
V162        V  0.51549764  0.45591886  0.49697893     1.35200
C163        C  0.07133107  0.51346277  0.53604743     0.80300
C164        C  0.43038323  0.02577853  0.46347130     0.80400
C165        C  0.43843572  0.46918087  0.53694211     0.80200
C166        C  0.06359128  0.98104881  0.46430683     0.80200
C167        C  0.50522348  0.44595374  0.23318006    -0.10400
C168        C  0.51004326  0.40190847  0.22032576    -0.12000
C169        C  0.50141934  0.05356111  0.23338776    -0.10400
C170        C  0.50583579  0.09663976  0.21978768    -0.12000
C171        C  0.51615241  0.11073727  0.91508864    -0.10400
C172        C  0.51645055  0.08799668  0.93638816    -0.12000
C173        C  0.54185777  0.40617413  0.93682668    -0.10400
C174        C  0.53568202  0.38551548  0.91527006    -0.12000
C175        C  0.56015737  0.41169907  0.06308443    -0.10400
C176        C  0.05766726  0.38786372  0.08445860    -0.12000
C177        C  0.03514032  0.11330198  0.08301480    -0.10400
C178        C  0.52923704  0.09258245  0.06129952    -0.12000
C179        C  0.38425691  0.04486668  0.41694731    -0.10400
C180        C  0.40557676  0.03968492  0.43844105    -0.12000
C181        C  0.09324552  0.97817599  0.43955951    -0.10400
C182        C  0.11581670  0.98468328  0.41838231    -0.12000
C183        C  0.44908496  0.49757542  0.26622216    -0.10400
C184        C  0.40048335  0.00715299  0.28034667    -0.12000
C185        C  0.09467269  0.99814949  0.28142309    -0.10400
C186        C  0.05541823  0.50278164  0.26584857    -0.12000
C187        C  0.12042981  0.51006360  0.58257966    -0.10400
C188        C  0.09920098  0.51660877  0.56115698    -0.12000
C189        C  0.38985300  0.45197476  0.58316258    -0.10400
C190        C  0.41230125  0.45644897  0.56185969    -0.12000
C191        C  0.49232025  0.05430098  0.76688238    -0.10400
C192        C  0.49819069  0.09880679  0.77911475    -0.12000
C193        C  0.50527466  0.44897670  0.76595746    -0.10400
C194        C  0.50808976  0.40482300  0.77879016    -0.12000
C195        C  0.05605108  0.50347865  0.73271368    -0.10400
C196        C  0.10042451  0.50370562  0.71989529    -0.12000
C197        C  0.45002679  0.49741985  0.73233551    -0.10400
C198        C  0.40611218  0.49415500  0.71938511    -0.12000
C199        C  0.98641508  0.00222158  0.75011047     0.00400
N200        N  0.32545601  0.00249719  0.65581378    -0.33800
N201        N  0.23671328  0.00630554  0.69611968    -0.56900
N202        N  0.15251028  0.97870793  0.65549972    -0.33700
N203        N  0.24119672  0.97795995  0.61644883    -0.54300
C204        C  0.35526563  0.02123675  0.67675726     0.29800
C205        C  0.35427770  0.01731217  0.63371692     0.29800
C206        C  0.11816198  0.99707625  0.67503127     0.29800
C207        C  0.12208083  0.97871070  0.63283899     0.29800
C208        C  0.28334499  0.00339847  0.71194266     0.38500
C209        C  0.18980194  0.99891664  0.71145104     0.38500
C210        C  0.28860320  0.97302079  0.60195576     0.38500
C211        C  0.19975383  0.95279564  0.60253167     0.38500
C212        C  0.40426284  0.04778402  0.66794436    -0.19000
C213        C  0.40333312  0.04582609  0.64076094    -0.19000
C214        C  0.06498833  0.00850048  0.66458429    -0.19000
C215        C  0.06751159  0.99703938  0.63798380    -0.19000
C216        C  0.26566122  0.99525390  0.73768765    -0.20100
C217        C  0.20684378  0.99290655  0.73740514    -0.20100
C218        C  0.27761200  0.94368790  0.57887397    -0.20100
C219        C  0.22120047  0.93047793  0.57931363    -0.20100
C220        C  0.34108051  0.01125304  0.70347733    -0.15400
C221        C  0.33920832  0.00146080  0.60771184    -0.15400
C222        C  0.14209904  0.95997631  0.60803302    -0.15400
C223        C  0.13209799  0.99893228  0.70223452    -0.15400
H224        H  0.43712118  0.06680330  0.67989473     0.17500
H225        H  0.43580709  0.06201741  0.62774075     0.17500
H226        H  0.02795038  0.02289601  0.67511768     0.17500
H227        H  0.03295532  0.00096724  0.62411991     0.17500
H228        H  0.29231272  0.99210454  0.75493968     0.15800
H229        H  0.17974683  0.98700598  0.75435882     0.15800
H230        H  0.30674104  0.93442786  0.56301185     0.15800
H231        H  0.19802605  0.90965474  0.56367229     0.15800
H232        H  0.29078903  0.97537550  0.65698843     0.29000
H233        H  0.19249853  0.96107570  0.65801502     0.29000
N234        N  0.33776929  0.50739161  0.34529796    -0.33800
N235        N  0.25082800  0.53210088  0.38411946    -0.54300
N236        N  0.16425030  0.53304094  0.34457535    -0.33700
N237        N  0.25163427  0.50581628  0.30452803    -0.54300
C238        C  0.36389393  0.48997815  0.36765868     0.29800
C239        C  0.36854322  0.48842052  0.32465244     0.29800
C240        C  0.13245838  0.53213552  0.36690860     0.29800
C241        C  0.13114311  0.51470399  0.32453764     0.29800
C242        C  0.29739931  0.53401268  0.39930587     0.38500
C243        C  0.20885067  0.55529451  0.39839864     0.38500
C244        C  0.29879384  0.50760168  0.28893839     0.38500
C245        C  0.20519088  0.51220119  0.28883663     0.38500
C246        C  0.41220960  0.45987376  0.36111749    -0.19000
C247        C  0.41551261  0.45947278  0.33398135    -0.19000
C248        C  0.07811226  0.51425586  0.36091096    -0.19000
C249        C  0.07719923  0.50341152  0.33425170    -0.19000
C250        C  0.28551081  0.56010748  0.42313183    -0.20100
C251        C  0.22933682  0.57402929  0.42248046    -0.20100
C252        C  0.28194566  0.51472236  0.26303169    -0.20100
C253        C  0.22313127  0.51708500  0.26293787    -0.20100
C254        C  0.34715993  0.50419490  0.39362055    -0.15400
C255        C  0.35607526  0.49839905  0.29774181    -0.15400
C256        C  0.14705431  0.51119803  0.29754766    -0.15400
C257        C  0.15140359  0.54790710  0.39239619    -0.15400
H258        H  0.44255734  0.44122917  0.37448836     0.17500
H259        H  0.44824254  0.43932805  0.32241250     0.17500
H260        H  0.04279025  0.50954526  0.37431246     0.17500
H261        H  0.04075872  0.48885963  0.32326713     0.17500
H262        H  0.31366754  0.56606880  0.43970878     0.15800
H263        H  0.20548956  0.59222757  0.43858112     0.15800
H264        H  0.30910518  0.51664484  0.24590347     0.15800
H265        H  0.19658655  0.52184880  0.24573236     0.15800
H266        H  0.30409686  0.53552392  0.34399001     0.29000
H267        H  0.20472618  0.54992477  0.34261657     0.29000
O268        O  0.00970270  0.92938357  0.02689714    -0.68900
O269        O  0.04895139  0.56493070  0.97028703    -0.69100
O270        O  0.05700037  0.56947189  0.02436518    -0.69000
O271        O  0.00378835  0.92848840  0.97271871    -0.69000
O272        O  0.41791499  0.96300609  0.97479890    -0.69000
O273        O  0.46566818  0.54157119  0.02807011    -0.69000
O274        O  0.45734387  0.53851512  0.97407926    -0.68900
O275        O  0.42383670  0.96545596  0.02924990    -0.69100
V276        V  0.02557719  0.98109711  0.99929728     1.35200
V277        V  0.44391381  0.01474191  0.00103985     1.35200
C278        C  0.46191621  0.93443730  0.03905854     0.80300
C279        C  0.49473819  0.56584250  0.96161202     0.80400
C280        C  0.50636678  0.57081515  0.03675885     0.80200
C281        C  0.45365028  0.93157442  0.96341041     0.80200
N282        N  0.01120525  0.66662570  0.15465801    -0.33800
N283        N  0.99438279  0.75082268  0.19650138    -0.54300
N284        N  0.99191381  0.84047839  0.15662420    -0.33700
N285        N  0.00668245  0.75656824  0.11635537    -0.54300
C286        C  0.99417924  0.63312172  0.17476951     0.29800
C287        C  0.00244942  0.63754887  0.13193184     0.29800
C288        C  0.97655704  0.86968799  0.17831159     0.29800
C289        C  0.97297905  0.86947366  0.13527672     0.29800
C290        C  0.00347581  0.70352645  0.21132516     0.38500
C291        C  0.00036976  0.79712008  0.21238595     0.38500
C292        C  0.02680585  0.71455934  0.10121208     0.38500
C293        C  0.01084751  0.80404214  0.10193289     0.38500
C294        C  0.97477659  0.58203963  0.16464491    -0.19000
C295        C  0.98012179  0.58474269  0.13763394    -0.19000
C296        C  0.94825798  0.91851977  0.17070068    -0.19000
C297        C  0.94549649  0.91806522  0.14353763    -0.19000
C298        C  0.01433416  0.71998563  0.23703512    -0.20100
C299        C  0.01274457  0.77884001  0.23766972    -0.20100
C300        C  0.04583509  0.73570016  0.07731324    -0.20100
C301        C  0.03534649  0.79261090  0.07772004    -0.20100
C302        C  0.99912387  0.64608077  0.20197799    -0.15400
C303        C  0.01583338  0.65749201  0.10640197    -0.15400
C304        C  0.98385586  0.85460647  0.10872773    -0.15400
C305        C  0.99066488  0.85495984  0.20455286    -0.15400
H306        H  0.95730996  0.54704991  0.17565104     0.17500
H307        H  0.96836624  0.55194820  0.12378140     0.17500
H308        H  0.93096982  0.95087598  0.18344600     0.17500
H309        H  0.92668963  0.95042144  0.13129195     0.17500
H310        H  0.02230010  0.69246704  0.25363399     0.15800
H311        H  0.01881912  0.80510283  0.25490397     0.15800
H312        H  0.06199413  0.71207162  0.06068214     0.15800
H313        H  0.04243609  0.82168422  0.06160528     0.15800
H314        H  0.03265060  0.70498369  0.15651885     0.29000
H315        H  0.01916205  0.80596655  0.15664579     0.29000
C316        C  0.49751952  0.00164930  0.25079165     0.00400
N317        N  0.44817928  0.83645436  0.84571492    -0.33800
N318        N  0.47556830  0.75086099  0.80497708    -0.54300
N319        N  0.46395599  0.66095167  0.84449902    -0.33700
N320        N  0.43913050  0.74646546  0.88405065    -0.54300
C321        C  0.46738866  0.87056725  0.82619218     0.29800
C322        C  0.44931306  0.86662071  0.86857808     0.29800
C323        C  0.48582933  0.63095770  0.82418601     0.29800
C324        C  0.47396063  0.63135649  0.86696769     0.29800
C325        C  0.47219257  0.79827236  0.78965735     0.38500
C326        C  0.47710854  0.70454768  0.78879607     0.38500
C327        C  0.41917363  0.78960807  0.89867601     0.38500
C328        C  0.43049435  0.69914857  0.89825193     0.38500
C329        C  0.47928747  0.92362164  0.83675549    -0.19000
C330        C  0.46832356  0.92098856  0.86340730    -0.19000
C331        C  0.50853354  0.58088498  0.83382759    -0.19000
C332        C  0.50161262  0.58143446  0.86077747    -0.19000
C333        C  0.47222458  0.78173518  0.76344860    -0.20100
C334        C  0.47509964  0.72295756  0.76291219    -0.20100
C335        C  0.39593436  0.76938244  0.92192028    -0.20100
C336        C  0.40328593  0.71196588  0.92167980    -0.20100
C337        C  0.47229962  0.85610696  0.79899347    -0.15400
C338        C  0.43201901  0.84664738  0.89376083    -0.15400
C339        C  0.45638562  0.64717056  0.89266949    -0.15400
C340        C  0.48427781  0.64653173  0.79715341    -0.15400
H341        H  0.49457792  0.96051121  0.82635919     0.17500
H342        H  0.47336396  0.95534768  0.87733072     0.17500
H343        H  0.52875124  0.54769035  0.82261875     0.17500
H344        H  0.51466882  0.54844377  0.87421990     0.17500
H345        H  0.47083833  0.80921068  0.74643416     0.15800
H346        H  0.47660808  0.69682706  0.74542315     0.15800
H347        H  0.37865210  0.79378043  0.93806036     0.15800
H348        H  0.39266590  0.68330549  0.93754482     0.15800
H349        H  0.43083081  0.79636086  0.84306222     0.29000
H350        H  0.43932157  0.69716538  0.84269128     0.29000
O351        O  0.04190986  0.55418808  0.52763885    -0.68900
O352        O  0.43250859  0.52878529  0.47461249    -0.69100
O353        O  0.43791882  0.51930301  0.52829531    -0.69000
O354        O  0.03691817  0.56391692  0.47360972    -0.69000
O355        O  0.03530741  0.93942210  0.47282263    -0.69000
O356        O  0.42218617  0.96748846  0.52622965    -0.69000
O357        O  0.42655777  0.97591128  0.47228888    -0.68900
O358        O  0.03013170  0.93091461  0.52689970    -0.69100
V359        V  0.48852550  0.53975634  0.50085220     1.35200
V360        V  0.47649488  0.95261079  0.49948049     1.35200
C361        C  0.05663217  0.96926758  0.53914038     0.80300
C362        C  0.43110604  0.48245635  0.46220232     0.80400
C363        C  0.42462535  0.01387198  0.53862799     0.80200
C364        C  0.06489595  0.52717728  0.46106490     0.80200
C365        C  0.49483497  0.94756478  0.23513135    -0.10400
C366        C  0.49238615  0.90271148  0.22288356    -0.12000
C367        C  0.49981219  0.55225617  0.23286452    -0.10400
C368        C  0.49841978  0.59675279  0.22027520    -0.12000
C369        C  0.47035310  0.61254282  0.91547155    -0.10400
C370        C  0.48136905  0.59196596  0.93669721    -0.12000
C371        C  0.44066374  0.90466573  0.93852288    -0.10400
C372        C  0.43492736  0.88298979  0.91700853    -0.12000
C373        C  0.45594922  0.91009866  0.06490347    -0.10400
C374        C  0.96540959  0.88942840  0.08675547    -0.12000
C375        C  0.01087006  0.62136522  0.08347064    -0.10400
C376        C  0.50247989  0.59804891  0.06192011    -0.12000
C377        C  0.38041383  0.48668708  0.41617655    -0.10400
C378        C  0.40208562  0.47938646  0.43742149    -0.12000
C379        C  0.09102890  0.54057398  0.43618796    -0.10400
C380        C  0.11335060  0.54646025  0.41491508    -0.12000
C381        C  0.44429983  0.00525766  0.26720545    -0.10400
C382        C  0.40494578  0.49732800  0.27920686    -0.12000
C383        C  0.09955779  0.50629132  0.27857637    -0.10400
C384        C  0.05062776  0.99993576  0.26846509    -0.12000
C385        C  0.10457877  0.95640901  0.58554409    -0.10400
C386        C  0.08256892  0.95837518  0.56414216    -0.12000
C387        C  0.37485683  0.01508090  0.58522243    -0.10400
C388        C  0.39686385  0.01933812  0.56378247    -0.12000
C389        C  0.49802639  0.55525786  0.76522301    -0.10400
C390        C  0.49233383  0.59934075  0.77800744    -0.12000
C391        C  0.48324056  0.94837282  0.76744284    -0.10400
C392        C  0.47882558  0.90449309  0.78042224    -0.12000
C393        C  0.03914153  0.99982179  0.73346337    -0.10400
C394        C  0.08346952  0.99959456  0.72074916    -0.12000
C395        C  0.43364682  0.00543776  0.73468081    -0.10400
C396        C  0.38933148  0.00877782  0.72209203    -0.12000
C397        C  0.50254911  0.50153739  0.74908703     0.00400
N398        N  0.83950350  0.46671682  0.65348183    -0.33800
N399        N  0.75325731  0.49486453  0.69381248    -0.56900
N400        N  0.66571760  0.49163566  0.65339020    -0.33700
N401        N  0.75186443  0.46675980  0.61418195    -0.54300
C402        C  0.87343168  0.48451529  0.67334516     0.29800
C403        C  0.87087108  0.46648440  0.63101307     0.29800
C404        C  0.63516152  0.51067478  0.67409310     0.29800
C405        C  0.63827227  0.50719402  0.63105395     0.29800
C406        C  0.80010754  0.48966829  0.70936850     0.38500
C407        C  0.70645902  0.49458314  0.70967034     0.38500
C408        C  0.79366004  0.44337431  0.59984935     0.38500
C409        C  0.70488241  0.46362912  0.59929955     0.38500
C410        C  0.92741979  0.49427354  0.66336812    -0.19000
C411        C  0.92573432  0.48313069  0.63674058    -0.19000
C412        C  0.58698274  0.53769160  0.66482243    -0.19000
C413        C  0.58924282  0.53600574  0.63767653    -0.19000
C414        C  0.78278979  0.48729479  0.73543129    -0.20100
C415        C  0.72399580  0.48989094  0.73560392    -0.20100
C416        C  0.77275359  0.42363049  0.57602207    -0.20100
C417        C  0.71642621  0.43681563  0.57561032    -0.20100
C418        C  0.85811287  0.48924776  0.70039834    -0.15400
C419        C  0.85124406  0.45040600  0.60566887    -0.15400
C420        C  0.65470879  0.49264207  0.60507226    -0.15400
C421        C  0.64879813  0.50257529  0.70104500    -0.15400
H422        H  0.96438054  0.50795467  0.67418116     0.17500
H423        H  0.96092910  0.48667053  0.62319150     0.17500
H424        H  0.55418074  0.55757830  0.67643757     0.17500
H425        H  0.55785815  0.55308140  0.62436945     0.17500
H426        H  0.80973687  0.48400970  0.75257917     0.15800
H427        H  0.69729275  0.48962245  0.75290765     0.15800
H428        H  0.79629569  0.40483371  0.55997456     0.15800
H429        H  0.68782616  0.42965307  0.55929985     0.15800
H430        H  0.79869913  0.45082935  0.65563840     0.29000
H431        H  0.70034510  0.46472379  0.65470918     0.29000
N432        N  0.83200936  0.02246550  0.34640463    -0.33800
N433        N  0.74407293  0.01691589  0.38611139    -0.54300
N434        N  0.65911455  0.99579179  0.34680665    -0.33700
N435        N  0.74701030  0.99798362  0.30589385    -0.54300
C436        C  0.86279241  0.02019208  0.36894645     0.29800
C437        C  0.86605956  0.00585897  0.32637938     0.29800
C438        C  0.63105542  0.97793144  0.36865527     0.29800
C439        C  0.62875252  0.97968441  0.32555711     0.29800
C440        C  0.78542587  0.04170183  0.40021739     0.38500
C441        C  0.69717978  0.01895192  0.40112782     0.38500
C442        C  0.79351364  0.00632845  0.29036494     0.38500
C443        C  0.69989315  0.00173626  0.29041810     0.38500
C444        C  0.91729336  0.00249915  0.36321790    -0.19000
C445        C  0.91939007  0.99356489  0.33640411    -0.19000
C446        C  0.58192206  0.95015331  0.36113480    -0.19000
C447        C  0.58014382  0.95180061  0.33394817    -0.19000
C448        C  0.76434118  0.06099470  0.42409807    -0.20100
C449        C  0.70836820  0.04604400  0.42476690    -0.20100
C450        C  0.77568753  0.01395179  0.26462435    -0.20100
C451        C  0.71686020  0.01160132  0.26469446    -0.20100
C452        C  0.84302738  0.03579910  0.39427305    -0.15400
C453        C  0.85154257  0.00553523  0.29920007    -0.15400
C454        C  0.64237427  0.99266829  0.29901306    -0.15400
C455        C  0.64679819  0.99045796  0.39498158    -0.15400
H456        H  0.95201419  0.99703731  0.37687556     0.17500
H457        H  0.95618809  0.97994833  0.32547981     0.17500
H458        H  0.54995561  0.93205901  0.37388552     0.17500
H459        H  0.54706191  0.93407846  0.32171138     0.17500
H460        H  0.78762301  0.08074423  0.44000387     0.15800
H461        H  0.67968488  0.05283810  0.44106878     0.15800
H462        H  0.80227373  0.02083330  0.24757781     0.15800
H463        H  0.68972508  0.01565249  0.24764734     0.15800
H464        H  0.79183219  0.03996456  0.34449246     0.29000
H465        H  0.69365632  0.02307865  0.34612234     0.29000
O466        O  0.58690559  0.46530551  0.02572703    -0.68900
O467        O  0.54606715  0.03075951  0.97159856    -0.69100
O468        O  0.55131862  0.03228977  0.02577376    -0.69000
O469        O  0.57948407  0.46062298  0.97139021    -0.69000
O470        O  0.98690491  0.43603897  0.97447304    -0.69000
O471        O  0.96528608  0.06666527  0.02744066    -0.69000
O472        O  0.95926938  0.06477709  0.97333378    -0.68900
O473        O  0.99498482  0.43890385  0.02841737    -0.69100
V474        V  0.56438074  0.51507695  0.99802461     1.35200
V475        V  0.97921829  0.49159014  0.00115603     1.35200
C476        C  0.04446788  0.43661059  0.03779125     0.80300
C477        C  0.00651668  0.06191641  0.96171426     0.80400
C478        C  0.01460412  0.06391728  0.03701223     0.80200
C479        C  0.03347138  0.43209864  0.96241148     0.80200
N480        N  0.53427395  0.16214113  0.15378207    -0.33800
N481        N  0.51762185  0.24943366  0.19419744    -0.54300
N482        N  0.54497576  0.33776119  0.15474329    -0.33700
N483        N  0.55832767  0.25048918  0.11528223    -0.54300
C484        C  0.51334165  0.12993238  0.17361507     0.29800
C485        C  0.52757623  0.13282715  0.13092613     0.29800
C486        C  0.52394092  0.37023963  0.17444128     0.29800
C487        C  0.54506388  0.36943782  0.13235747     0.29800
C488        C  0.51688731  0.20236895  0.20984992     0.38500
C489        C  0.51878667  0.29616345  0.21007884     0.38500
C490        C  0.56896964  0.20428164  0.10055194     0.38500
C491        C  0.57797408  0.29505235  0.10146184     0.38500
C492        C  0.49436536  0.07885209  0.16324606    -0.19000
C493        C  0.50274099  0.08093322  0.13637373    -0.19000
C494        C  0.51191396  0.42361924  0.16447894    -0.19000
C495        C  0.52488353  0.42305265  0.13802290    -0.19000
C496        C  0.51694942  0.21960152  0.23594498    -0.20100
C497        C  0.51793635  0.27842549  0.23608848    -0.20100
C498        C  0.59668906  0.21936086  0.07753873    -0.20100
C499        C  0.60264862  0.27691313  0.07816735    -0.20100
C500        C  0.51266647  0.14447840  0.20085937    -0.15400
C501        C  0.54609083  0.15047912  0.10557600    -0.15400
C502        C  0.56453904  0.35157501  0.10719812    -0.15400
C503        C  0.51791852  0.35436198  0.20138165    -0.15400
H504        H  0.47588805  0.04382923  0.17392006     0.17500
H505        H  0.49265988  0.04758417  0.12250716     0.17500
H506        H  0.49548098  0.45934508  0.17524393     0.17500
H507        H  0.52048418  0.45823098  0.12456286     0.17500
H508        H  0.51560286  0.19261061  0.25312857     0.15800
H509        H  0.51775251  0.30511227  0.25340971     0.15800
H510        H  0.60915867  0.19199469  0.06146680     0.15800
H511        H  0.62038653  0.30269284  0.06260574     0.15800
H512        H  0.55658412  0.19980108  0.15617900     0.29000
H513        H  0.56295280  0.29792875  0.15708019     0.29000
C514        C  0.00246489  0.49949349  0.24942537     0.00400
N515        N  0.00803231  0.33827908  0.84516924    -0.33800
N516        N  0.00887048  0.25195471  0.80405705    -0.54300
N517        N  0.00312369  0.16360470  0.84508466    -0.33700
N518        N  0.00361235  0.24959127  0.88458919    -0.54300
C519        C  0.02243933  0.36996216  0.82403231     0.29800
C520        C  0.02476807  0.36675922  0.86705790     0.29800
C521        C  0.01641025  0.13249358  0.82367125     0.29800
C522        C  0.01668104  0.13270470  0.86672077     0.29800
C523        C  0.00023156  0.29905740  0.78900456     0.38500
C524        C  0.99747766  0.20541663  0.78899143     0.38500
C525        C  0.99356991  0.29545456  0.89948696     0.38500
C526        C  0.99008607  0.20458313  0.89951155     0.38500
C527        C  0.04808515  0.41962342  0.83263157    -0.19000
C528        C  0.04987379  0.41742606  0.85978105    -0.19000
C529        C  0.03868255  0.08092827  0.83178585    -0.19000
C530        C  0.03900165  0.08116380  0.85897245    -0.19000
C531        C  0.98417653  0.28209086  0.76396395    -0.20100
C532        C  0.98239351  0.22323875  0.76396104    -0.20100
C533        C  0.97196137  0.27971739  0.92380107    -0.20100
C534        C  0.96970057  0.22186863  0.92380937    -0.20100
C535        C  0.00963746  0.35660965  0.79743987    -0.15400
C536        C  0.01433134  0.34925794  0.89326568    -0.15400
C537        C  0.00552309  0.14918195  0.89301403    -0.15400
C538        C  0.00365062  0.14742294  0.79729817    -0.15400
H539        H  0.06425761  0.45366542  0.82054904     0.17500
H540        H  0.06686321  0.44975262  0.87267748     0.17500
H541        H  0.05289671  0.04654289  0.81936639     0.17500
H542        H  0.05294832  0.04696655  0.87154653     0.17500
H543        H  0.97507941  0.30925339  0.74736712     0.15800
H544        H  0.97173295  0.19659972  0.74733935     0.15800
H545        H  0.96174521  0.30690564  0.94027738     0.15800
H546        H  0.95727762  0.19560424  0.94027041     0.15800
H547        H  0.98278490  0.30212156  0.84468473     0.29000
H548        H  0.97965308  0.20083695  0.84472476     0.29000
O549        O  0.55929751  0.01135119  0.52989796    -0.68900
O550        O  0.95443379  0.05907721  0.47552641    -0.69100
O551        O  0.94965500  0.05047231  0.52950948    -0.69000
O552        O  0.56332839  0.01984530  0.47607330    -0.69000
O553        O  0.56607876  0.47643393  0.46946436    -0.69000
O554        O  0.96560384  0.43140789  0.52436014    -0.69000
O555        O  0.96066621  0.44113420  0.47035680    -0.68900
O556        O  0.57145688  0.46688566  0.52329625    -0.69100
V557        V  0.00470987  0.03732564  0.50285978     1.35200
V558        V  0.01520613  0.45588116  0.49704889     1.35200
C559        C  0.57242450  0.51309115  0.53583875     0.80300
C560        C  0.92813247  0.02083419  0.46315064     0.80400
C561        C  0.93764270  0.46821263  0.53688160     0.80200
C562        C  0.56119066  0.97341953  0.46372229     0.80200
C563        C  0.00555630  0.44591447  0.23316912    -0.10400
C564        C  0.00976570  0.40165988  0.22041929    -0.12000
C565        C  0.00143432  0.05338137  0.23409430    -0.10400
C566        C  0.00534773  0.09635295  0.22040117    -0.12000
C567        C  0.01293553  0.11071650  0.91502212    -0.10400
C568        C  0.01389819  0.08821051  0.93638964    -0.12000
C569        C  0.03527697  0.40522963  0.93710563    -0.10400
C570        C  0.02879257  0.38462024  0.91557371    -0.12000
C571        C  0.05402727  0.41003961  0.06300870    -0.10400
C572        C  0.56374876  0.38969755  0.08459275    -0.12000
C573        C  0.53729630  0.11474161  0.08250711    -0.10400
C574        C  0.02747643  0.09145329  0.06170338    -0.12000
C575        C  0.88073939  0.03645550  0.41674521    -0.10400
C576        C  0.90244053  0.03235396  0.43814949    -0.12000
C577        C  0.58926522  0.96830436  0.43859834    -0.10400
C578        C  0.61155153  0.97420464  0.41728341    -0.12000
C579        C  0.94931809  0.49767392  0.26602812    -0.10400
C580        C  0.89990047  0.00485454  0.28037599    -0.12000
C581        C  0.59393803  0.99600004  0.28049756    -0.10400
C582        C  0.55522059  0.50268702  0.26578274    -0.12000
C583        C  0.62100540  0.50918129  0.58246640    -0.10400
C584        C  0.60018828  0.51595104  0.56097434    -0.12000
C585        C  0.88909359  0.45024617  0.58307161    -0.10400
C586        C  0.91144152  0.45507574  0.56175427    -0.12000
C587        C  0.99056044  0.05516043  0.76643115    -0.10400
C588        C  0.99606552  0.09943157  0.77886995    -0.12000
C589        C  0.00454818  0.44935968  0.76601467    -0.10400
C590        C  0.00658024  0.40525024  0.77891367    -0.12000
C591        C  0.55607993  0.50384677  0.73272644    -0.10400
C592        C  0.60035448  0.50407815  0.71982990    -0.12000
C593        C  0.94991581  0.49769470  0.73219410    -0.10400
C594        C  0.90601349  0.49415473  0.71923878    -0.12000
C595        C  0.48705023  0.00119075  0.75073645     0.00400
N596        N  0.82360324  0.99560006  0.65524858    -0.33800
N597        N  0.73566749  0.00085448  0.69553312    -0.56900
N598        N  0.65059297  0.96995907  0.65540115    -0.33700
N599        N  0.73869527  0.96769362  0.61635121    -0.54300
C600        C  0.85353391  0.01612072  0.67581132     0.29800
C601        C  0.85145309  0.01006383  0.63285315     0.29800
C602        C  0.61651425  0.98932438  0.67483624     0.29800
C603        C  0.61977978  0.96850523  0.63281941     0.29800
C604        C  0.78240737  0.99981330  0.71136876     0.38500
C605        C  0.68888923  0.99451701  0.71103626     0.38500
C606        C  0.78602610  0.96291380  0.60180563     0.38500
C607        C  0.69735491  0.94181575  0.60263001     0.38500
C608        C  0.90162582  0.04338183  0.66645344    -0.19000
C609        C  0.89998506  0.04010725  0.63931215    -0.19000
C610        C  0.56303609  0.99961191  0.66444691    -0.19000
C611        C  0.56516776  0.98667509  0.63797108    -0.19000
C612        C  0.76492237  0.99382117  0.73726047    -0.20100
C613        C  0.70612979  0.99098557  0.73707298    -0.20100
C614        C  0.77516712  0.93276691  0.57893361    -0.20100
C615        C  0.71887561  0.91900574  0.57953383    -0.20100
C616        C  0.84000181  0.00772699  0.70270673    -0.15400
C617        C  0.83605180  0.99276225  0.60710264    -0.15400
C618        C  0.63965570  0.94911542  0.60804844    -0.15400
C619        C  0.63107732  0.99356517  0.70195234    -0.15400
H620        H  0.93416589  0.06398366  0.67801307     0.17500
H621        H  0.93161693  0.05660371  0.62593373     0.17500
H622        H  0.52607295  0.01439027  0.67492523     0.17500
H623        H  0.53035862  0.98968901  0.62419045     0.17500
H624        H  0.79166777  0.99256860  0.75453569     0.15800
H625        H  0.67916463  0.98651257  0.75416567     0.15800
H626        H  0.80423537  0.92358144  0.56303620     0.15800
H627        H  0.69575586  0.89767953  0.56402066     0.15800
H628        H  0.78950795  0.96786181  0.65684934     0.29000
H629        H  0.69084802  0.95304549  0.65802107     0.29000
N630        N  0.83803055  0.50654545  0.34502540    -0.33800
N631        N  0.75124560  0.53114514  0.38387055    -0.54300
N632        N  0.66454648  0.53211015  0.34434242    -0.33700
N633        N  0.75174018  0.50490508  0.30426029    -0.54300
C634        C  0.86431815  0.48921924  0.36736257     0.29800
C635        C  0.86879380  0.48773608  0.32435118     0.29800
C636        C  0.63279858  0.53132220  0.36668370     0.29800
C637        C  0.63131097  0.51395684  0.32431855     0.29800
C638        C  0.79783390  0.53309543  0.39904462     0.38500
C639        C  0.70929428  0.55437276  0.39814822     0.38500
C640        C  0.79887566  0.50668067  0.28865603     0.38500
C641        C  0.70526095  0.51120184  0.28857935     0.38500
C642        C  0.91273378  0.45932835  0.36077432    -0.19000
C643        C  0.91592698  0.45897723  0.33363397    -0.19000
C644        C  0.57835551  0.51370075  0.36071026    -0.19000
C645        C  0.57733201  0.50289799  0.33405258    -0.19000
C646        C  0.78597413  0.55921980  0.42286531    -0.20100
C647        C  0.72980475  0.57313880  0.42222085    -0.20100
C648        C  0.78197022  0.51360574  0.26274431    -0.20100
C649        C  0.72315123  0.51591499  0.26266715    -0.20100
C650        C  0.84762151  0.50335026  0.39334098    -0.15400
C651        C  0.85621167  0.49775955  0.29745636    -0.15400
C652        C  0.64713762  0.51044498  0.29732379    -0.15400
C653        C  0.65184351  0.54703106  0.39215519    -0.15400
H654        H  0.94322230  0.44081500  0.37411543     0.17500
H655        H  0.94870368  0.43899949  0.32203062     0.17500
H656        H  0.54303269  0.50916419  0.37412434     0.17500
H657        H  0.54079075  0.48854116  0.32308355     0.17500
H658        H  0.81415504  0.56523669  0.43942883     0.15800
H659        H  0.70597998  0.59138322  0.43831723     0.15800
H660        H  0.80909936  0.51547354  0.24560448     0.15800
H661        H  0.69657432  0.52058457  0.24546658     0.15800
H662        H  0.80425616  0.53455616  0.34373835     0.29000
H663        H  0.70507989  0.54884217  0.34237376     0.29000
O664        O  0.50851390  0.92980661  0.02705024    -0.68900
O665        O  0.54492207  0.56592111  0.97033366    -0.69100
O666        O  0.55274616  0.57072337  0.02438947    -0.69000
O667        O  0.50301187  0.92834927  0.97292516    -0.69000
O668        O  0.91811457  0.96163106  0.97482308    -0.69000
O669        O  0.96814680  0.54631238  0.02801469    -0.69000
O670        O  0.95975202  0.54339699  0.97400878    -0.68900
O671        O  0.92443831  0.96351940  0.02932684    -0.69100
V672        V  0.52553143  0.98093659  0.99938073     1.35200
V673        V  0.94339238  0.01344006  0.00117548     1.35200
C674        C  0.96321156  0.93324418  0.03906087     0.80300
C675        C  0.99893908  0.56797392  0.96149177     0.80400
C676        C  0.01071594  0.57274695  0.03671288     0.80200
C677        C  0.95436393  0.93114822  0.96323262     0.80200
N678        N  0.50657226  0.66576217  0.15447890    -0.33800
N679        N  0.49183091  0.75046174  0.19628529    -0.54300
N680        N  0.48840949  0.83974512  0.15621956    -0.33700
N681        N  0.50082975  0.75532680  0.11593909    -0.54300
C682        C  0.49059106  0.63244206  0.17483338     0.29800
C683        C  0.49699880  0.63635526  0.13192142     0.29800
C684        C  0.47420586  0.86947247  0.17792933     0.29800
C685        C  0.46979203  0.86908735  0.13491956     0.29800
C686        C  0.50158926  0.70330444  0.21111794     0.38500
C687        C  0.49848220  0.79692703  0.21201252     0.38500
C688        C  0.52023578  0.71297412  0.10078749     0.38500
C689        C  0.50536260  0.80264627  0.10141870     0.38500
C690        C  0.47097139  0.58113087  0.16502788    -0.19000
C691        C  0.47519516  0.58350168  0.13796600    -0.19000
C692        C  0.44695235  0.91894179  0.17035394    -0.19000
C693        C  0.44371948  0.91841679  0.14321640    -0.19000
C694        C  0.51358624  0.72002713  0.23668150    -0.20100
C695        C  0.51195509  0.77888572  0.23721217    -0.20100
C696        C  0.53897632  0.73368575  0.07676113    -0.20100
C697        C  0.52919179  0.79071037  0.07711379    -0.20100
C698        C  0.49684666  0.64574417  0.20194667    -0.15400
C699        C  0.50940901  0.65598335  0.10624222    -0.15400
C700        C  0.47983557  0.85389694  0.10835165    -0.15400
C701        C  0.48863250  0.85473920  0.20413833    -0.15400
H702        H  0.45422353  0.54611336  0.17627504     0.17500
H703        H  0.46318242  0.55038690  0.12432000     0.17500
H704        H  0.43079971  0.95188778  0.18309711     0.17500
H705        H  0.42559028  0.95121884  0.13100402     0.17500
H706        H  0.52233857  0.69267858  0.25325504     0.15800
H707        H  0.51884296  0.80531826  0.25432443     0.15800
H708        H  0.55474207  0.70976814  0.06013831     0.15800
H709        H  0.53652979  0.81959402  0.06095002     0.15800
H710        H  0.52800931  0.70417338  0.15603599     0.29000
H711        H  0.51485696  0.80464083  0.15614431     0.29000
C712        C  0.99811844  0.00149304  0.25152162     0.00400
N713        N  0.95001575  0.83744113  0.84515217    -0.33800
N714        N  0.97784052  0.75193775  0.80440525    -0.54300
N715        N  0.96837274  0.66234607  0.84407924    -0.33700
N716        N  0.94305783  0.74764346  0.88356823    -0.54300
C717        C  0.96872825  0.87166034  0.82557050     0.29800
C718        C  0.95088112  0.86773969  0.86798347     0.29800
C719        C  0.99018130  0.63259690  0.82368818     0.29800
C720        C  0.97986095  0.63328170  0.86653840     0.29800
C721        C  0.97373602  0.79925525  0.78907267     0.38500
C722        C  0.97909543  0.70556174  0.78825731     0.38500
C723        C  0.92205673  0.79039014  0.89811181     0.38500
C724        C  0.93535683  0.70024212  0.89780857     0.38500
C725        C  0.98002333  0.92491247  0.83606576    -0.19000
C726        C  0.96919282  0.92230416  0.86273773    -0.19000
C727        C  0.01455714  0.58328285  0.83327045    -0.19000
C728        C  0.00860283  0.58402692  0.86027727    -0.19000
C729        C  0.97313103  0.78260995  0.76287709    -0.20100
C730        C  0.97621908  0.72383436  0.76237215    -0.20100
C731        C  0.89910000  0.76978327  0.92134601    -0.20100
C732        C  0.90773986  0.71255484  0.92118813    -0.20100
C733        C  0.97355005  0.85710689  0.79837530    -0.15400
C734        C  0.93393604  0.84760269  0.89318938    -0.15400
C735        C  0.96236119  0.64885186  0.89227134    -0.15400
C736        C  0.98686835  0.64766144  0.79665186    -0.15400
H737        H  0.99475468  0.96193146  0.82560156     0.17500
H738        H  0.97383685  0.95679399  0.87662049     0.17500
H739        H  0.03524471  0.55052294  0.82196958     0.17500
H740        H  0.02293784  0.55157159  0.87371375     0.17500
H741        H  0.97108567  0.81000869  0.74585053     0.15800
H742        H  0.97735708  0.69762970  0.74490088     0.15800
H743        H  0.88119652  0.79387948  0.93743695     0.15800
H744        H  0.89764729  0.68374431  0.93706741     0.15800
H745        H  0.93311961  0.79715329  0.84256171     0.29000
H746        H  0.94264825  0.69780069  0.84233912     0.29000
O747        O  0.54334860  0.55407339  0.52744648    -0.68900
O748        O  0.93170496  0.52803175  0.47458638    -0.69100
O749        O  0.93677436  0.51838688  0.52829656    -0.69000
O750        O  0.53804840  0.56366677  0.47343750    -0.69000
O751        O  0.52952003  0.93449124  0.47244328    -0.69000
O752        O  0.92374489  0.96240720  0.52578886    -0.69000
O753        O  0.92885347  0.97086411  0.47196015    -0.68900
O754        O  0.52513697  0.92603915  0.52668950    -0.69100
V755        V  0.98740677  0.53943764  0.50094091     1.35200
V756        V  0.97998691  0.95258634  0.49943314     1.35200
C757        C  0.55540100  0.96165734  0.53886496     0.80300
C758        C  0.93094422  0.48178355  0.46209575     0.80400
C759        C  0.92139828  0.00891921  0.53806267     0.80200
C760        C  0.56553101  0.52662079  0.46085871     0.80200
C761        C  0.99633488  0.94748490  0.23577524    -0.10400
C762        C  0.99407667  0.90281821  0.22337379    -0.12000
C763        C  0.00052062  0.55231288  0.23276718    -0.10400
C764        C  0.99969956  0.59688482  0.22021450    -0.12000
C765        C  0.97695798  0.61457247  0.91508689    -0.10400
C766        C  0.98745651  0.59422983  0.93641329    -0.12000
C767        C  0.94185277  0.90492611  0.93813488    -0.10400
C768        C  0.93644494  0.88384450  0.91647436    -0.12000
C769        C  0.95817032  0.90922952  0.06503884    -0.10400
C770        C  0.46243968  0.88955416  0.08650571    -0.12000
C771        C  0.50428674  0.61939444  0.08348465    -0.10400
C772        C  0.00857837  0.60024086  0.06186530    -0.12000
C773        C  0.88089245  0.48584921  0.41590012    -0.10400
C774        C  0.90234043  0.47860130  0.43720367    -0.12000
C775        C  0.59159672  0.53975680  0.43595472    -0.10400
C776        C  0.61384441  0.54560417  0.41467377    -0.12000
C777        C  0.94435605  0.00416007  0.26764433    -0.10400
C778        C  0.90509292  0.49712329  0.27893785    -0.12000
C779        C  0.59952788  0.50590323  0.27839863    -0.10400
C780        C  0.55006206  0.99913829  0.26755369    -0.12000
C781        C  0.60221239  0.94567963  0.58541861    -0.10400
C782        C  0.58049552  0.94845841  0.56391255    -0.12000
C783        C  0.87063332  0.00682800  0.58436536    -0.10400
C784        C  0.89251618  0.01201926  0.56297417    -0.12000
C785        C  0.99839014  0.55572578  0.76495747    -0.10400
C786        C  0.99363135  0.60011244  0.77759686    -0.12000
C787        C  0.98330059  0.94929812  0.76674323    -0.10400
C788        C  0.97943639  0.90543134  0.77974999    -0.12000
C789        C  0.53919943  0.99760912  0.73378399    -0.10400
C790        C  0.58293861  0.99608001  0.72068217    -0.12000
C791        C  0.93307323  0.00548184  0.73385203    -0.10400
C792        C  0.88860825  0.00740509  0.72124571    -0.12000
loop_ 
_geom_bond_atom_site_label_1 
_geom_bond_atom_site_label_2 
_geom_bond_distance 
_geom_bond_site_symmetry_2 
_ccdc_geom_bond_type 
C1          C195   1.514       .  S
C1          C785   1.514   1_455  S
C1          C589   1.511       .  S
C1          C593   1.508   1_455  S
N2            C7   1.361       .  A
N2            C6   1.355       .  A
N2           H34   1.039       .  S
N3           C10   1.366       .  A
N3           C11   1.368       .  A
N4            C9   1.359       .  A
N4            C8   1.353       .  A
N4           H35   1.038       .  S
N5           C12   1.346       .  A
N5           C13   1.345       .  A
C6           C14   1.391       .  A
C6           C22   1.426       .  A
C7           C23   1.420       .  A
C7           C15   1.384       .  A
C8           C16   1.388       .  A
C8           C25   1.421       .  A
C9           C24   1.419       .  A
C9           C17   1.385       .  A
C10          C22   1.444       .  A
C10          C18   1.388       .  A
C11          C25   1.443       .  A
C11          C19   1.387       .  A
C12          C20   1.388       .  A
C12          C23   1.401       .  A
C13          C21   1.387       .  A
C13          C24   1.401       .  A
C14          C15   1.379       .  A
C14          H26   1.080       .  S
C15          H27   1.083       .  S
C16          C17   1.381       .  A
C16          H28   1.082       .  S
C17          H29   1.082       .  S
C18          C19   1.390       .  A
C18          H30   1.082       .  S
C19          H31   1.082       .  S
C20          C21   1.366       .  A
C20          H32   1.082       .  S
C21          H33   1.082       .  S
C22         C198   1.486       .  S
C23         C189   1.455       .  S
C24         C187   1.453       .  S
C25         C196   1.490       .  S
N36          C41   1.355       .  A
N36          C40   1.360       .  A
N36          H68   1.040       .  S
N37          C44   1.345       .  A
N37          C45   1.346       .  A
N38          C43   1.351   1_545  A
N38          C42   1.359   1_545  A
N38          H69   1.039       .  S
N39          C46   1.366       .  A
N39          C47   1.367       .  A
C40          C48   1.385       .  A
C40          C56   1.420       .  A
C41          C57   1.426       .  A
C41          C49   1.391       .  A
C42          C50   1.385       .  A
C42          C59   1.419   1_565  A
C43          C58   1.420       .  A
C43          C51   1.389       .  A
C44          C56   1.401       .  A
C44          C52   1.389       .  A
C45          C59   1.401       .  A
C45          C53   1.386       .  A
C46          C54   1.387       .  A
C46          C57   1.443       .  A
C47          C55   1.387       .  A
C47          C58   1.443   1_545  A
C48          C49   1.381       .  A
C48          H60   1.083       .  S
C49          H61   1.081   1_545  S
C50          C51   1.383       .  A
C50          H62   1.082       .  S
C51          H63   1.082       .  S
C52          C53   1.368       .  A
C52          H64   1.082       .  S
C53          H65   1.082       .  S
C54          C55   1.390       .  A
C54          H66   1.082       .  S
C55          H67   1.082       .  S
C56         C179   1.453       .  S
C57         C184   1.489       .  S
C58         C185   1.487       .  S
C59         C182   1.455   1_545  S
O70          V78   1.910   1_554  S
O70         C476   1.266       .  A
O71         V276   1.902   1_545  S
O71         C477   1.263       .  A
O72         V276   1.907   1_544  S
O72         C478   1.265       .  A
O73          V78   1.900       .  S
O73         C479   1.262       .  A
O74          V79   1.895   1_556  S
O74          C83   1.263       .  A
O75         V277   1.904       .  S
O75          C82   1.264       .  A
O76         V277   1.901   1_556  S
O76          C81   1.264       .  A
O77          V79   1.901       .  S
O77          C80   1.263       .  A
V78         O269   1.908       .  S
V78         O270   1.897   1_556  S
V78         V475   2.090   1_456  T
V79         O273   1.897       .  S
V79         O274   1.903   1_554  S
V79         V474   2.090   1_554  T
C80         C175   1.447       .  S
C80         O466   1.266       .  A
C81         C172   1.439       .  S
C81         O467   1.262       .  A
C82         C178   1.445       .  S
C82         O468   1.264       .  A
C83         C173   1.436       .  S
C83         O469   1.262       .  A
N84          C89   1.361       .  A
N84          C88   1.356       .  A
N84         H116   1.039       .  S
N85          C92   1.367       .  A
N85          C93   1.367       .  A
N86          C91   1.362       .  A
N86          C90   1.355       .  A
N86         H117   1.040       .  S
N87          C94   1.346       .  A
N87          C95   1.347       .  A
C88          C96   1.389   1_455  A
C88         C104   1.426       .  A
C89         C105   1.423       .  A
C89          C97   1.386   1_455  A
C90          C98   1.388       .  A
C90         C107   1.426       .  A
C91         C106   1.422       .  A
C91          C99   1.384       .  A
C92         C104   1.444       .  A
C92         C100   1.387       .  A
C93         C107   1.443       .  A
C93         C101   1.387       .  A
C94         C102   1.387       .  A
C94         C105   1.403       .  A
C95         C103   1.387       .  A
C95         C106   1.402       .  A
C96          C97   1.382       .  A
C96         H108   1.081       .  S
C97         H109   1.082       .  S
C98          C99   1.379       .  A
C98         H110   1.078   1_455  S
C99         H111   1.082       .  S
C100        C101   1.390       .  A
C100        H112   1.082       .  S
C101        H113   1.082       .  S
C102        C103   1.367       .  A
C102        H114   1.082       .  S
C103        H115   1.082       .  S
C104        C566   1.493       .  S
C105        C177   1.459       .  S
C106        C176   1.459       .  S
C107        C564   1.490       .  S
C118        C167   1.512       .  S
C118        C183   1.513       .  S
C118        C367   1.509       .  S
C118        C582   1.505       .  S
N119        C124   1.358       .  A
N119        C123   1.353       .  A
N119        H151   1.040       .  S
N120        C127   1.367       .  A
N120        C128   1.366       .  A
N121        C126   1.359       .  A
N121        C125   1.350       .  A
N121        H152   1.040       .  S
N122        C129   1.343       .  A
N122        C130   1.345       .  A
C123        C131   1.389       .  A
C123        C139   1.421       .  A
C124        C140   1.417       .  A
C124        C132   1.385       .  A
C125        C133   1.391       .  A
C125        C142   1.419       .  A
C126        C141   1.416       .  A
C126        C134   1.384       .  A
C127        C139   1.442       .  A
C127        C135   1.387       .  A
C128        C142   1.442       .  A
C128        C136   1.387       .  A
C129        C137   1.388       .  A
C129        C140   1.398       .  A
C130        C138   1.387       .  A
C130        C141   1.398       .  A
C131        C132   1.382       .  A
C131        H143   1.081       .  S
C132        H144   1.082       .  S
C133        C134   1.381       .  A
C133        H145   1.082       .  S
C134        H146   1.082       .  S
C135        C136   1.390       .  A
C135        H147   1.082       .  S
C136        H148   1.082       .  S
C137        C138   1.367       .  A
C137        H149   1.082       .  S
C138        H150   1.082       .  S
C139        C194   1.488       .  S
C140        C174   1.449       .  S
C141        C171   1.452       .  S
C142        C192   1.481       .  S
O153        V557   1.894       .  S
O153        C361   1.262   1_545  A
O154        V161   1.903       .  S
O154        C164   1.263       .  A
O155        V161   1.905       .  S
O155        C363   1.263       .  A
O156        V557   1.899       .  S
O156        C166   1.263   1_545  A
O157        V558   1.902       .  S
O157        C364   1.264       .  A
O158        V162   1.905       .  S
O158        C165   1.264       .  A
O159        V162   1.902       .  S
O159        C362   1.263       .  A
O160        V558   1.898       .  S
O160        C163   1.263       .  A
V161        O549   1.897       .  S
V161        O552   1.900       .  S
V161        V360   2.090   1_545  T
V162        O553   1.902       .  S
V162        O556   1.898       .  S
V162        V359   2.090       .  T
C163        C188   1.438       .  S
C163        O351   1.263       .  A
C164        C180   1.439       .  S
C164        O357   1.264   1_545  A
C165        C190   1.441       .  S
C165        O353   1.263       .  A
C166        C181   1.441       .  S
C166        O355   1.264       .  A
C167        C168   1.233       .  T
C168        C503   1.490       .  S
C169        C316   1.515       .  S
C169        C170   1.235       .  T
C170        C500   1.493       .  S
C171        C172   1.209       .  T
C173        C174   1.208       .  T
C175        C572   1.214       .  T
C176        C571   1.213       .  T
C177        C574   1.213       .  T
C178        C573   1.213       .  T
C179        C180   1.210       .  T
C181        C182   1.211       .  T
C183        C382   1.234       .  T
C184        C381   1.232       .  T
C185        C384   1.232       .  T
C186        C514   1.505       .  S
C186        C383   1.229       .  T
C187        C188   1.209       .  T
C189        C190   1.210       .  T
C191        C595   1.503       .  S
C191        C192   1.228       .  T
C193        C397   1.511       .  S
C193        C194   1.233       .  T
C195        C196   1.234       .  T
C197        C397   1.507       .  S
C197        C198   1.231       .  T
C199        C587   1.503       .  S
C199        C787   1.511   1_545  S
C199        C393   1.507   1_645  S
C199        C791   1.509       .  S
N200        C205   1.359       .  A
N200        C204   1.350       .  A
N200        H232   1.040   1_545  S
N201        C208   1.366       .  A
N201        C209   1.365   1_545  A
N202        C207   1.358       .  A
N202        C206   1.354       .  A
N202        H233   1.041       .  S
N203        C210   1.345       .  A
N203        C211   1.345       .  A
C204        C212   1.389       .  A
C204        C220   1.419       .  A
C205        C221   1.419       .  A
C205        C213   1.386       .  A
C206        C214   1.391   1_565  A
C206        C223   1.422       .  A
C207        C222   1.417       .  A
C207        C215   1.385       .  A
C208        C220   1.441       .  A
C208        C216   1.387   1_545  A
C209        C223   1.441       .  A
C209        C217   1.387       .  A
C210        C218   1.386       .  A
C210        C221   1.400   1_565  A
C211        C219   1.388       .  A
C211        C222   1.401       .  A
C212        C213   1.383       .  A
C212        H224   1.082       .  S
C213        H225   1.082       .  S
C214        C215   1.380   1_545  A
C214        H226   1.081       .  S
C215        H227   1.082   1_565  S
C216        C217   1.390       .  A
C216        H228   1.082       .  S
C217        H229   1.082       .  S
C218        C219   1.368       .  A
C218        H230   1.082       .  S
C219        H231   1.082       .  S
C220        C396   1.482       .  S
C221        C387   1.455       .  S
C222        C385   1.449       .  S
C223        C394   1.485       .  S
N234        C239   1.353       .  A
N234        C238   1.358       .  A
N234        H266   1.040       .  S
N235        C242   1.344       .  A
N235        C243   1.346       .  A
N236        C241   1.354       .  A
N236        C240   1.361       .  A
N236        H267   1.040       .  S
N237        C244   1.367       .  A
N237        C245   1.365       .  A
C238        C246   1.386       .  A
C238        C254   1.418       .  A
C239        C255   1.419       .  A
C239        C247   1.388       .  A
C240        C248   1.384       .  A
C240        C257   1.420       .  A
C241        C256   1.425       .  A
C241        C249   1.392       .  A
C242        C254   1.401       .  A
C242        C250   1.387       .  A
C243        C257   1.401       .  A
C243        C251   1.388       .  A
C244        C252   1.386       .  A
C244        C255   1.442       .  A
C245        C253   1.388       .  A
C245        C256   1.443       .  A
C246        C247   1.382       .  A
C246        H258   1.082       .  S
C247        H259   1.082       .  S
C248        C249   1.379       .  A
C248        H260   1.083       .  S
C249        H261   1.081       .  S
C250        C251   1.368       .  A
C250        H262   1.082       .  S
C251        H263   1.083       .  S
C252        C253   1.390       .  A
C252        H264   1.082       .  S
C253        H265   1.082       .  S
C254        C377   1.451       .  S
C255        C382   1.490       .  S
C256        C383   1.484       .  S
C257        C380   1.456       .  S
O268        V276   1.898   1_554  S
O268        C674   1.263   1_455  A
O269        C675   1.265   1_455  A
O270        C676   1.263       .  A
O271        V276   1.905       .  S
O271        C677   1.265   1_455  A
O272        V277   1.909   1_566  S
O272        C281   1.265       .  A
O273        C280   1.262       .  A
O274        C279   1.263       .  A
O275        V277   1.907   1_565  S
O275        C278   1.264       .  A
V276        V673   2.089   1_466  T
V277        V672   2.089   1_544  T
C278        C373   1.441       .  S
C278        O664   1.263       .  A
C279        C370   1.445       .  S
C279        O665   1.265       .  A
C280        C376   1.434       .  S
C280        O666   1.263       .  A
C281        C371   1.448       .  S
C281        O667   1.265       .  A
N282        C287   1.359       .  A
N282        C286   1.354   1_455  A
N282        H314   1.041       .  S
N283        C290   1.365   1_655  A
N283        C291   1.366   1_655  A
N284        C289   1.360       .  A
N284        C288   1.350       .  A
N284        H315   1.040   1_655  S
N285        C292   1.343       .  A
N285        C293   1.344       .  A
C286        C294   1.388       .  A
C286        C302   1.421       .  A
C287        C303   1.417       .  A
C287        C295   1.384   1_455  A
C288        C296   1.389       .  A
C288        C305   1.419       .  A
C289        C304   1.418       .  A
C289        C297   1.384       .  A
C290        C302   1.440   1_455  A
C290        C298   1.387       .  A
C291        C305   1.442   1_455  A
C291        C299   1.388       .  A
C292        C300   1.388       .  A
C292        C303   1.397       .  A
C293        C301   1.386       .  A
C293        C304   1.398   1_455  A
C294        C295   1.380       .  A
C294        H306   1.080       .  S
C295        H307   1.082       .  S
C296        C297   1.382       .  A
C296        H308   1.082       .  S
C297        H309   1.082       .  S
C298        C299   1.391       .  A
C298        H310   1.082       .  S
C299        H311   1.082       .  S
C300        C301   1.367       .  A
C300        H312   1.082       .  S
C301        H313   1.082       .  S
C302        C764   1.487       .  S
C303        C375   1.448       .  S
C304        C374   1.455       .  S
C305        C762   1.482       .  S
C316        C365   1.506   1_545  S
C316        C381   1.511       .  S
C316        C780   1.507   1_545  S
N317        C322   1.363       .  A
N317        C321   1.356       .  A
N317        H349   1.040       .  S
N318        C325   1.367       .  A
N318        C326   1.368       .  A
N319        C324   1.361       .  A
N319        C323   1.355       .  A
N319        H350   1.040       .  S
N320        C327   1.347       .  A
N320        C328   1.346       .  A
C321        C329   1.391       .  A
C321        C337   1.429       .  A
C322        C338   1.424       .  A
C322        C330   1.385       .  A
C323        C331   1.389       .  A
C323        C340   1.423       .  A
C324        C339   1.421       .  A
C324        C332   1.385       .  A
C325        C337   1.445       .  A
C325        C333   1.388       .  A
C326        C340   1.445       .  A
C326        C334   1.387       .  A
C327        C335   1.388       .  A
C327        C338   1.403       .  A
C328        C336   1.387       .  A
C328        C339   1.401       .  A
C329        C330   1.381       .  A
C329        H341   1.081       .  S
C330        H342   1.083       .  S
C331        C332   1.380       .  A
C331        H343   1.081       .  S
C332        H344   1.082       .  S
C333        C334   1.390       .  A
C333        H345   1.082       .  S
C334        H346   1.082       .  S
C335        C336   1.367       .  A
C335        H347   1.082       .  S
C336        H348   1.083       .  S
C337        C392   1.491       .  S
C338        C372   1.461       .  S
C339        C369   1.458       .  S
C340        C390   1.491       .  S
O351        V755   1.902   1_455  S
O352        V359   1.896       .  S
O352        C362   1.263       .  A
O353        V359   1.899       .  S
O354        V755   1.905   1_455  S
O354        C364   1.264       .  A
O355        V756   1.906   1_455  S
O356        V360   1.902       .  S
O356        C363   1.264   1_565  A
O357        V360   1.900       .  S
O358        V756   1.902   1_455  S
O358        C361   1.263       .  A
V359        O747   1.901       .  S
V359        O750   1.904       .  S
V360        O751   1.908       .  S
V360        O754   1.906       .  S
C361        C386   1.435       .  S
C362        C378   1.436       .  S
C363        C388   1.443       .  S
C364        C379   1.442       .  S
C365        C366   1.229       .  T
C366        C701   1.482       .  S
C367        C368   1.231       .  T
C368        C698   1.487       .  S
C369        C370   1.212       .  T
C371        C372   1.214       .  T
C373        C770   1.211       .  T
C374        C769   1.212       .  T
C375        C772   1.207       .  T
C376        C771   1.207       .  T
C377        C378   1.208       .  T
C379        C380   1.211       .  T
C384        C712   1.510   1_465  S
C385        C386   1.207       .  T
C387        C388   1.212       .  T
C389        C397   1.514       .  S
C389        C390   1.234       .  T
C391        C595   1.512   1_565  S
C391        C392   1.233       .  T
C393        C394   1.230       .  T
C395        C595   1.506       .  S
C395        C396   1.229       .  T
C397        C591   1.514       .  S
N398        C403   1.361       .  A
N398        C402   1.355       .  A
N398        H430   1.039       .  S
N399        C406   1.366       .  A
N399        C407   1.368       .  A
N400        C405   1.359       .  A
N400        C404   1.353       .  A
N400        H431   1.039       .  S
N401        C408   1.346       .  A
N401        C409   1.345       .  A
C402        C410   1.391       .  A
C402        C418   1.426       .  A
C403        C419   1.420       .  A
C403        C411   1.384       .  A
C404        C412   1.388       .  A
C404        C421   1.421       .  A
C405        C420   1.419       .  A
C405        C413   1.386       .  A
C406        C418   1.444       .  A
C406        C414   1.388       .  A
C407        C421   1.443       .  A
C407        C415   1.386       .  A
C408        C416   1.388       .  A
C408        C419   1.401       .  A
C409        C417   1.387       .  A
C409        C420   1.401       .  A
C410        C411   1.379       .  A
C410        H422   1.080       .  S
C411        H423   1.082       .  S
C412        C413   1.381       .  A
C412        H424   1.082       .  S
C413        H425   1.082       .  S
C414        C415   1.390       .  A
C414        H426   1.082       .  S
C415        H427   1.082       .  S
C416        C417   1.367       .  A
C416        H428   1.082       .  S
C417        H429   1.082       .  S
C418        C594   1.486       .  S
C419        C585   1.455       .  S
C420        C583   1.452       .  S
C421        C592   1.491       .  S
N432        C437   1.355       .  A
N432        C436   1.358       .  A
N432        H464   1.040       .  S
N433        C440   1.344       .  A
N433        C441   1.346       .  A
N434        C439   1.350       .  A
N434        C438   1.360       .  A
N434        H465   1.039   1_565  S
N435        C442   1.366   1_565  A
N435        C443   1.366   1_565  A
C436        C444   1.385       .  A
C436        C452   1.418       .  A
C437        C453   1.424       .  A
C437        C445   1.390   1_545  A
C438        C446   1.385       .  A
C438        C455   1.420       .  A
C439        C454   1.421       .  A
C439        C447   1.389       .  A
C440        C452   1.401       .  A
C440        C448   1.389       .  A
C441        C455   1.401   1_545  A
C441        C449   1.386       .  A
C442        C450   1.387       .  A
C442        C453   1.442       .  A
C443        C451   1.387       .  A
C443        C454   1.442   1_545  A
C444        C445   1.380   1_545  A
C444        H456   1.082   1_545  S
C445        H457   1.081       .  S
C446        C447   1.383       .  A
C446        H458   1.082       .  S
C447        H459   1.082       .  S
C448        C449   1.368       .  A
C448        H460   1.082       .  S
C449        H461   1.082       .  S
C450        C451   1.390       .  A
C450        H462   1.082       .  S
C451        H463   1.082       .  S
C452        C575   1.449       .  S
C453        C580   1.490       .  S
C454        C581   1.484       .  S
C455        C578   1.458       .  S
O466        V474   1.912   1_554  S
O467        V672   1.901   1_545  S
O468        V672   1.907   1_544  S
O469        V474   1.901       .  S
O470        V475   1.895   1_556  S
O470        C479   1.263   1_655  A
O471        V673   1.904       .  S
O471        C478   1.264   1_655  A
O472        V673   1.901   1_556  S
O472        C477   1.264   1_655  A
O473        V475   1.901       .  S
O473        C476   1.263   1_655  A
V474        O665   1.908       .  S
V474        O666   1.896   1_556  S
V475        O669   1.897       .  S
V475        O670   1.902   1_554  S
C476        C571   1.446       .  S
C477        C568   1.440       .  S
C478        C574   1.445       .  S
C479        C569   1.434       .  S
N480        C485   1.361       .  A
N480        C484   1.356       .  A
N480        H512   1.040       .  S
N481        C488   1.368       .  A
N481        C489   1.367       .  A
N482        C487   1.363       .  A
N482        C486   1.356       .  A
N482        H513   1.040       .  S
N483        C490   1.347       .  A
N483        C491   1.347       .  A
C484        C492   1.389       .  A
C484        C500   1.427       .  A
C485        C501   1.423       .  A
C485        C493   1.386       .  A
C486        C494   1.389       .  A
C486        C503   1.427       .  A
C487        C502   1.423       .  A
C487        C495   1.384       .  A
C488        C500   1.444       .  A
C488        C496   1.387       .  A
C489        C503   1.444       .  A
C489        C497   1.388       .  A
C490        C498   1.387       .  A
C490        C501   1.403       .  A
C491        C499   1.387       .  A
C491        C502   1.403       .  A
C492        C493   1.381       .  A
C492        H504   1.081       .  S
C493        H505   1.083       .  S
C494        C495   1.379       .  A
C494        H506   1.078       .  S
C495        H507   1.082       .  S
C496        C497   1.389       .  A
C496        H508   1.082       .  S
C497        H509   1.082       .  S
C498        C499   1.366       .  A
C498        H510   1.082       .  S
C499        H511   1.082       .  S
C501        C573   1.459       .  S
C502        C572   1.461       .  S
C514        C563   1.512       .  S
C514        C763   1.509       .  S
C514        C579   1.513   1_455  S
N515        C520   1.358       .  A
N515        C519   1.353       .  A
N515        H547   1.041   1_455  S
N516        C523   1.367       .  A
N516        C524   1.365   1_455  A
N517        C522   1.359       .  A
N517        C521   1.350       .  A
N517        H548   1.041   1_455  S
N518        C525   1.342   1_455  A
N518        C526   1.344   1_455  A
C519        C527   1.389       .  A
C519        C535   1.420       .  A
C520        C536   1.417       .  A
C520        C528   1.385       .  A
C521        C529   1.391       .  A
C521        C538   1.419       .  A
C522        C537   1.417       .  A
C522        C530   1.384       .  A
C523        C535   1.442       .  A
C523        C531   1.387   1_455  A
C524        C538   1.441   1_655  A
C524        C532   1.387       .  A
C525        C533   1.388       .  A
C525        C536   1.397   1_655  A
C526        C534   1.387       .  A
C526        C537   1.398   1_655  A
C527        C528   1.382       .  A
C527        H539   1.081       .  S
C528        H540   1.082       .  S
C529        C530   1.382       .  A
C529        H541   1.082       .  S
C530        H542   1.082       .  S
C531        C532   1.390       .  A
C531        H543   1.082       .  S
C532        H544   1.082       .  S
C533        C534   1.367       .  A
C533        H545   1.082       .  S
C534        H546   1.082       .  S
C535        C590   1.488       .  S
C536        C570   1.448       .  S
C537        C567   1.453       .  S
C538        C588   1.480   1_455  S
O549        C757   1.263   1_545  A
O550        V557   1.900   1_655  S
O550        C560   1.262       .  A
O551        V557   1.903   1_655  S
O551        C759   1.263       .  A
O552        C562   1.264   1_545  A
O553        C760   1.264       .  A
O554        V558   1.906   1_655  S
O554        C561   1.264       .  A
O555        V558   1.902   1_655  S
O555        C758   1.263       .  A
O556        C559   1.263       .  A
V557        V756   2.090   1_445  T
V558        V755   2.090   1_455  T
C559        C584   1.438       .  S
C559        O747   1.263       .  A
C560        C576   1.435       .  S
C560        O753   1.263   1_545  A
C561        C586   1.441       .  S
C561        O749   1.263       .  A
C562        C577   1.444       .  S
C562        O751   1.264       .  A
C563        C564   1.233       .  T
C565        C712   1.515   1_455  S
C565        C566   1.235       .  T
C567        C568   1.210       .  T
C569        C570   1.207       .  T
C575        C576   1.207       .  T
C577        C578   1.213       .  T
C579        C778   1.233       .  T
C580        C777   1.233       .  T
C581        C780   1.230       .  T
C582        C779   1.229       .  T
C583        C584   1.209       .  T
C585        C586   1.211       .  T
C587        C588   1.228       .  T
C589        C590   1.233       .  T
C591        C592   1.234       .  T
C593        C594   1.231       .  T
C595        C789   1.505   1_545  S
N596        C601   1.358   1_565  A
N596        C600   1.351   1_565  A
N596        H628   1.040       .  S
N597        C604   1.366   1_545  A
N597        C605   1.365   1_545  A
N598        C603   1.360       .  A
N598        C602   1.354       .  A
N598        H629   1.041       .  S
N599        C606   1.345       .  A
N599        C607   1.345       .  A
C600        C608   1.388       .  A
C600        C616   1.418       .  A
C601        C617   1.418   1_545  A
C601        C609   1.386       .  A
C602        C610   1.391       .  A
C602        C619   1.424       .  A
C603        C618   1.420       .  A
C603        C611   1.385       .  A
C604        C616   1.441   1_565  A
C604        C612   1.387       .  A
C605        C619   1.441       .  A
C605        C613   1.387       .  A
C606        C614   1.386       .  A
C606        C617   1.400       .  A
C607        C615   1.388       .  A
C607        C618   1.401       .  A
C608        C609   1.382       .  A
C608        H620   1.082       .  S
C609        H621   1.082       .  S
C610        C611   1.381       .  A
C610        H622   1.081   1_565  S
C611        H623   1.083       .  S
C612        C613   1.390       .  A
C612        H624   1.082       .  S
C613        H625   1.082       .  S
C614        C615   1.368       .  A
C614        H626   1.082       .  S
C615        H627   1.082       .  S
C616        C792   1.485       .  S
C617        C783   1.453   1_565  S
C618        C781   1.453       .  S
C619        C790   1.484       .  S
N630        C635   1.353       .  A
N630        C634   1.358       .  A
N630        H662   1.039       .  S
N631        C638   1.344       .  A
N631        C639   1.346       .  A
N632        C637   1.354       .  A
N632        C636   1.361       .  A
N632        H663   1.040       .  S
N633        C640   1.367       .  A
N633        C641   1.365       .  A
C634        C642   1.386       .  A
C634        C650   1.418       .  A
C635        C651   1.419       .  A
C635        C643   1.388       .  A
C636        C644   1.384       .  A
C636        C653   1.419       .  A
C637        C652   1.425       .  A
C637        C645   1.392       .  A
C638        C650   1.401       .  A
C638        C646   1.387       .  A
C639        C653   1.401       .  A
C639        C647   1.388       .  A
C640        C648   1.386       .  A
C640        C651   1.442       .  A
C641        C649   1.388       .  A
C641        C652   1.443       .  A
C642        C643   1.382       .  A
C642        H654   1.082       .  S
C643        H655   1.082       .  S
C644        C645   1.379       .  A
C644        H656   1.083       .  S
C645        H657   1.081       .  S
C646        C647   1.368       .  A
C646        H658   1.082       .  S
C647        H659   1.083       .  S
C648        C649   1.390       .  A
C648        H660   1.082       .  S
C649        H661   1.082       .  S
C650        C773   1.451       .  S
C651        C778   1.490       .  S
C652        C779   1.483       .  S
C653        C776   1.455       .  S
O664        V672   1.897   1_554  S
O667        V672   1.905       .  S
O668        V673   1.908   1_566  S
O668        C677   1.265       .  A
O669        C676   1.262   1_655  A
O670        C675   1.263       .  A
O671        V673   1.908   1_565  S
O671        C674   1.264       .  A
C674        C769   1.443       .  S
C675        C766   1.444       .  S
C676        C772   1.434       .  S
C677        C767   1.448       .  S
N678        C683   1.359       .  A
N678        C682   1.354       .  A
N678        H710   1.041       .  S
N679        C686   1.366       .  A
N679        C687   1.366       .  A
N680        C685   1.360       .  A
N680        C684   1.350       .  A
N680        H711   1.039       .  S
N681        C688   1.343       .  A
N681        C689   1.344       .  A
C682        C690   1.388       .  A
C682        C698   1.421       .  A
C683        C699   1.416       .  A
C683        C691   1.384       .  A
C684        C692   1.390       .  A
C684        C701   1.419       .  A
C685        C700   1.417       .  A
C685        C693   1.384       .  A
C686        C698   1.441       .  A
C686        C694   1.387       .  A
C687        C701   1.443       .  A
C687        C695   1.388       .  A
C688        C696   1.388       .  A
C688        C699   1.397       .  A
C689        C697   1.387       .  A
C689        C700   1.398       .  A
C690        C691   1.380       .  A
C690        H702   1.080       .  S
C691        H703   1.082       .  S
C692        C693   1.382       .  A
C692        H704   1.082       .  S
C693        H705   1.082       .  S
C694        C695   1.391       .  A
C694        H706   1.082       .  S
C695        H707   1.082       .  S
C696        C697   1.367       .  A
C696        H708   1.082       .  S
C697        H709   1.082       .  S
C699        C771   1.448       .  S
C700        C770   1.454       .  S
C712        C761   1.506   1_545  S
C712        C777   1.512       .  S
N713        C718   1.363       .  A
N713        C717   1.356       .  A
N713        H745   1.039       .  S
N714        C721   1.367       .  A
N714        C722   1.368       .  A
N715        C720   1.360       .  A
N715        C719   1.354       .  A
N715        H746   1.039       .  S
N716        C723   1.346       .  A
N716        C724   1.346       .  A
C717        C725   1.391       .  A
C717        C733   1.429       .  A
C718        C734   1.424       .  A
C718        C726   1.385       .  A
C719        C727   1.389   1_655  A
C719        C736   1.422       .  A
C720        C735   1.420       .  A
C720        C728   1.385   1_655  A
C721        C733   1.445       .  A
C721        C729   1.388       .  A
C722        C736   1.445       .  A
C722        C730   1.387       .  A
C723        C731   1.388       .  A
C723        C734   1.402       .  A
C724        C732   1.386       .  A
C724        C735   1.401       .  A
C725        C726   1.381       .  A
C725        H737   1.081       .  S
C726        H738   1.083       .  S
C727        C728   1.380       .  A
C727        H739   1.081       .  S
C728        H740   1.082       .  S
C729        C730   1.390       .  A
C729        H741   1.082       .  S
C730        H742   1.082       .  S
C731        C732   1.367       .  A
C731        H743   1.082       .  S
C732        H744   1.082       .  S
C733        C788   1.490       .  S
C734        C768   1.461       .  S
C735        C765   1.457       .  S
C736        C786   1.491       .  S
O748        V755   1.896       .  S
O748        C758   1.263       .  A
O749        V755   1.900       .  S
O750        C760   1.264       .  A
O752        V756   1.901       .  S
O752        C759   1.264   1_565  A
O753        V756   1.897       .  S
O754        C757   1.264       .  A
C757        C782   1.439       .  S
C758        C774   1.436       .  S
C759        C784   1.440       .  S
C760        C775   1.441       .  S
C761        C762   1.229       .  T
C763        C764   1.232   1_455  T
C765        C766   1.212       .  T
C767        C768   1.215       .  T
C773        C774   1.208       .  T
C775        C776   1.210       .  T
C781        C782   1.210       .  T
C783        C784   1.210       .  T
C785        C786   1.234       .  T
C787        C788   1.233       .  T
C789        C790   1.230       .  T
C791        C792   1.231       .  T
