geometry optimzed in LAMMPS
_audit_creation_date              2020-11-30 
_audit_creation_method            'lammps2cif' 
_symmetry_space_group_name_H-M    'P1' 
_symmetry_Int_Tables_number       1 
_symmetry_cell_setting            triclinic 
loop_ 
_symmetry_equiv_pos_as_xyz 
  x,y,z 
_cell_length_a                    54.47391839 
_cell_length_b                    54.867695646509105 
_cell_length_c                    54.79172575750646 
_cell_angle_alpha                 90.17767595195292 
_cell_angle_beta                  89.95001481215252 
_cell_angle_gamma                 89.95077855494974 
loop_ 
_atom_site_label 
_atom_site_type_symbol 
_atom_site_fract_x 
_atom_site_fract_y 
_atom_site_fract_z 
_atom_site_charge 
O1          O  0.04108697  0.00122695  0.04511451    -0.78300
C2          C  0.04646959  0.04435045  0.97873385     0.82700
O3          O  0.96229706  0.03678895  0.03727365    -0.79400
O4          O  0.97290447  0.01988186  0.95129426    -0.80900
O5          O  0.01782559  0.94802971  0.97851555    -0.80700
O6          O  0.03436871  0.96222044  0.03643518    -0.79300
Zn7        Zn  0.02078149  0.02081879  0.02208994     1.55700
O8          O  0.01592773  0.97636309  0.94941975    -0.80700
Cd9        Cd  0.00675703  0.96566408  0.01018410     1.59700
Cd10       Cd  0.96446136  0.00827940  0.01203975     1.59600
O11         O  0.97516998  0.94813739  0.02235260    -0.80700
O12         O  0.99936860  0.00072212  0.00291720    -1.91200
Cd13       Cd  0.00527246  0.00809375  0.96744408     1.59900
O14         O  0.94683199  0.97740055  0.02503624    -0.80700
O15         O  0.03261297  0.03460938  0.96265539    -0.79300
C16         C  0.97954799  0.04994119  0.04591407     0.83200
C17         C  0.04544715  0.97873026  0.04863303     0.82900
O18         O  0.04384301  0.03958749  0.00126618    -0.78300
C19         C  0.01999797  0.95448818  0.95625390     0.83700
O20         O  0.00193977  0.04549577  0.04107909    -0.78400
C21         C  0.95330394  0.95513630  0.02710934     0.83800
C22         C  0.95096465  0.02260909  0.95906119     0.84100
O23         O  0.94523433  0.01886738  0.98131296    -0.80800
O24         O  0.95478294  0.29244947  0.25267487    -0.78300
C25         C  0.95265697  0.22524359  0.29663955     0.82700
O26         O  0.03533099  0.28209339  0.28517676    -0.79400
O27         O  0.02404852  0.19587999  0.26540410    -0.80900
O28         O  0.97382705  0.22524647  0.19852329    -0.80700
O29         O  0.96001700  0.28405157  0.21332224    -0.79300
Zn30       Zn  0.97583657  0.26906477  0.27147797     1.55700
O31         O  0.97650388  0.19649739  0.22711974    -0.80700
Cd32       Cd  0.98688336  0.25663230  0.21552410     1.59700
Cd33       Cd  0.03151414  0.25715044  0.25659781     1.59600
O34         O  0.01804271  0.26771146  0.19651349    -0.80700
O35         O  0.99616848  0.24928761  0.25031219    -1.91200
Cd36       Cd  0.99109414  0.21374793  0.25754791     1.59900
O37         O  0.04725613  0.27059407  0.22496245    -0.80700
O38         O  0.96674075  0.20957785  0.28654905    -0.79300
C39         C  0.01906796  0.29278111  0.29814725     0.83200
C40         C  0.94986023  0.29644311  0.23033641     0.82900
O41         O  0.95370371  0.24782878  0.29145875    -0.78300
C42         C  0.97122101  0.20319044  0.20545853     0.83700
O43         O  0.99625237  0.28913006  0.29460596    -0.78400
C44         C  0.04008855  0.27250926  0.20286551     0.83800
C45         C  0.04611992  0.20341243  0.26748378     0.84100
O46         O  0.05144655  0.22593777  0.26513719    -0.80800
O47         O  0.79272509  0.25020915  0.45691290    -0.78300
C48         C  0.73016744  0.29954362  0.45050862     0.82700
O49         O  0.78259894  0.28881255  0.53616294    -0.79400
O50         O  0.69521846  0.27282504  0.51966719    -0.80900
O51         O  0.72274732  0.20109869  0.47887477    -0.80700
O52         O  0.78199139  0.21195075  0.46514448    -0.79300
Zn53       Zn  0.77120126  0.27204621  0.47709371     1.55700
O54         O  0.69594775  0.23160841  0.47548481    -0.80700
Cd55       Cd  0.75471978  0.21760297  0.49150929     1.59700
Cd56       Cd  0.75541863  0.26196284  0.53255983     1.59600
O57         O  0.76454790  0.20066792  0.52418825    -0.80700
O58         O  0.74910820  0.25342744  0.49735209    -1.91200
Cd59       Cd  0.71434805  0.26193567  0.48867072     1.59900
O60         O  0.76624244  0.23099051  0.55138776    -0.80700
O61         O  0.71286590  0.28898837  0.46208837    -0.79300
C62         C  0.79615697  0.29829028  0.51970620     0.83200
C63         C  0.79515405  0.22735907  0.45363941     0.82900
O64         O  0.75261407  0.29443884  0.45461104    -0.78300
C65         C  0.70143304  0.20908999  0.47341752     0.83700
O66         O  0.79349132  0.29280352  0.49728582    -0.78400
C67         C  0.76824521  0.20843974  0.54590211     0.83800
C68         C  0.70106099  0.27593829  0.54202309     0.84100
O69         O  0.72311977  0.27327982  0.54942202    -0.80800
O70         O  0.75750452  0.96057785  0.78918553    -0.78300
C71         C  0.80507305  0.95390707  0.72654200     0.82700
O72         O  0.79265234  0.04046680  0.77956043    -0.79400
O73         O  0.77975439  0.02344709  0.69321746    -0.80900
O74         O  0.70680756  0.98120662  0.72060613    -0.80700
O75         O  0.71843872  0.96759751  0.78013967    -0.79300
Zn76       Zn  0.77836111  0.98095602  0.76746041     1.55700
O77         O  0.73728676  0.98075962  0.69334963    -0.80700
Cd78       Cd  0.72308336  0.99368935  0.75257352     1.59700
Cd79       Cd  0.76606622  0.03609921  0.75256677     1.59600
O80         O  0.70482033  0.02564615  0.76250333    -0.80700
O81         O  0.75881739  0.00079221  0.74623142    -1.91200
Cd82       Cd  0.76795360  0.99277370  0.71170641     1.59900
O83         O  0.73421978  0.05393268  0.76313249    -0.80700
O84         O  0.79483213  0.96595351  0.70950237    -0.79300
C85         C  0.80346044  0.02417532  0.79216861     0.83200
C86         C  0.73477985  0.95655759  0.79263566     0.82900
O87         O  0.80013333  0.95808418  0.74886985    -0.78300
C88         C  0.71479838  0.97760510  0.69897158     0.83700
O89         O  0.79926601  0.00160491  0.78885818    -0.78400
C90         C  0.71180385  0.04765696  0.76567219     0.83800
C91         C  0.78209950  0.04578807  0.69924788     0.84100
O92         O  0.77794579  0.05314601  0.72097175    -0.80800
O93         O  0.25455595  0.95007843  0.28890481    -0.78300
C94         C  0.29657698  0.95209488  0.22322065     0.82700
O95         O  0.28666355  0.03267079  0.28723200    -0.79400
O96         O  0.26592597  0.02265613  0.19901805    -0.80900
O97         O  0.19729505  0.97741164  0.23130649    -0.80700
O98         O  0.21519608  0.96052208  0.28742898    -0.79300
Zn99       Zn  0.27320240  0.97402989  0.26885001     1.55700
O100        O  0.22362341  0.97850431  0.20012890    -0.80700
Cd101      Cd  0.21701011  0.98834519  0.26163074     1.59700
Cd102      Cd  0.25933147  0.03103102  0.26012383     1.59600
O103        O  0.19927755  0.01929271  0.27446819    -0.80700
O104        O  0.25163790  0.99597520  0.25172092    -1.91200
Cd105      Cd  0.25621405  0.99035081  0.21583577     1.59900
O106        O  0.22743895  0.04868134  0.27224638    -0.80700
O107        O  0.28374501  0.96490168  0.20863218    -0.79300
C108        C  0.29795703  0.01519293  0.29780271     0.83200
C109        C  0.23235441  0.94677977  0.29522089     0.82900
O110        O  0.29428291  0.95397503  0.24626258    -0.78300
C111        C  0.20214499  0.97477922  0.20867061     0.83700
O112        O  0.29422056  0.99303072  0.29188685    -0.78400
C113        C  0.20550346  0.04161484  0.27659059     0.83800
C114        C  0.27095540  0.04420130  0.20628589     0.84100
O115        O  0.27026465  0.05003505  0.22888489    -0.80800
O116        O  0.04983829  0.54092501  0.49843933    -0.78300
C117        C  0.98407137  0.54326372  0.54469207     0.82700
O118        O  0.03948913  0.45961048  0.53261009    -0.79400
O119        O  0.95358442  0.47303606  0.51632432    -0.80900
O120        O  0.98100019  0.51792901  0.44574924    -0.80700
O121        O  0.03803606  0.53617368  0.45983442    -0.79300
Zn122      Zn  0.02769994  0.51894313  0.51830995     1.55700
O123        O  0.95204341  0.51691431  0.47447499    -0.80700
Cd124      Cd  0.01307459  0.50762957  0.46305783     1.59700
Cd125      Cd  0.01464483  0.46387715  0.50390925     1.59600
O126        O  0.02604848  0.47725486  0.44449325    -0.80700
O127        O  0.00659503  0.49909370  0.49796002    -1.91200
Cd128      Cd  0.97081836  0.50523680  0.50559395     1.59900
O129        O  0.02800263  0.44759709  0.47220215    -0.80700
O130        O  0.96745548  0.53136398  0.53332032    -0.79300
C131        C  0.05148379  0.47566269  0.54453519     0.83200
C132        C  0.05135687  0.54651961  0.47593009     0.82900
O133        O  0.00679919  0.54002872  0.54007679    -0.78300
C134        C  0.95871688  0.52052000  0.45241939     0.83700
O135        O  0.04895487  0.49832649  0.54020027    -0.78400
C136        C  0.03056196  0.45519017  0.45033541     0.83800
C137        C  0.96091961  0.45095908  0.51758535     0.84100
O138        O  0.98315319  0.44509327  0.51319961    -0.80800
O139        O  0.45385283  0.24620241  0.79125827    -0.78300
C140        C  0.51955474  0.29071842  0.79851240     0.82700
O141        O  0.46497139  0.28251739  0.71238020    -0.79400
O142        O  0.55115672  0.26452347  0.72800127    -0.80900
O143        O  0.52208173  0.19273153  0.76738342    -0.80700
O144        O  0.46501463  0.20753386  0.78565687    -0.79300
Zn145      Zn  0.47691717  0.26637376  0.77127073     1.55700
O146        O  0.55081395  0.22148795  0.77005924    -0.80700
Cd147      Cd  0.49043072  0.21122527  0.75754282     1.59700
Cd148      Cd  0.49066414  0.25415755  0.71564447     1.59600
O149        O  0.47695492  0.19442788  0.72631052    -0.80700
O150        O  0.49765618  0.24639876  0.75089251    -1.91200
Cd151      Cd  0.53295777  0.25320267  0.75913965     1.59900
O152        O  0.47733262  0.22329877  0.69772772    -0.80700
O153        O  0.53635420  0.27975615  0.78647118    -0.79300
C154        C  0.45375095  0.29445505  0.72905693     0.83200
C155        C  0.45175637  0.22363911  0.79610947     0.82900
O156        O  0.49694351  0.28654699  0.79438426    -0.78300
C157        C  0.54415160  0.19924086  0.77160637     0.83700
O158        O  0.45702802  0.28967341  0.75152460    -0.78400
C159        C  0.47327754  0.20136576  0.70439311     0.83800
C160        C  0.54520660  0.26722427  0.70564085     0.84100
O161        O  0.52317797  0.26412834  0.69825216    -0.80800
O162        O  0.79234490  0.74421405  0.95698337    -0.78300
C163        C  0.73222530  0.79358734  0.94490045     0.82700
O164        O  0.78431256  0.78722578  0.03252924    -0.79400
O165        O  0.69610580  0.77478845  0.01611716    -0.80900
O166        O  0.72081242  0.69861539  0.98193144    -0.80700
O167        O  0.78056582  0.70655475  0.96589841    -0.79300
Zn168      Zn  0.77150865  0.76765649  0.97485081     1.55700
O169        O  0.69506861  0.72972536  0.97616145    -0.80700
Cd170      Cd  0.75373810  0.71488374  0.99210320     1.59700
Cd171      Cd  0.75560289  0.76191054  0.03024920     1.59600
O172        O  0.76447551  0.69997664  0.02535471    -0.80700
O173        O  0.74891788  0.75118103  0.99582842    -1.91200
Cd174      Cd  0.71464436  0.76059837  0.98622921     1.59900
O175        O  0.76538727  0.73186681  0.05073201    -0.80700
O176        O  0.71420927  0.78557942  0.95742478    -0.79300
C177        C  0.79809379  0.79509467  0.01543775     0.83200
C178        C  0.79445051  0.72131483  0.95440288     0.82900
O179        O  0.75424837  0.78773672  0.94991310    -0.78300
C180        C  0.69966342  0.70690347  0.97623270     0.83700
O181        O  0.79456722  0.78884664  0.99336447    -0.78400
C182        C  0.76793446  0.70911473  0.04654802     0.83800
C183        C  0.70197848  0.77895662  0.03828504     0.84100
O184        O  0.72382826  0.77570948  0.04605279    -0.80800
O185        O  0.29125293  0.29234039  0.00172350    -0.78300
C186        C  0.29911729  0.22676510  0.95839424     0.82700
O187        O  0.21265726  0.27945885  0.96171689    -0.79400
O188        O  0.23026106  0.19429567  0.98508578    -0.80900
O189        O  0.26603753  0.22965450  0.05660795    -0.80700
O190        O  0.27994434  0.28774760  0.04038416    -0.79300
Zn191      Zn  0.27154054  0.26949479  0.98126620     1.55700
O192        O  0.27088358  0.19954399  0.02957283    -0.80700
Cd193      Cd  0.25431923  0.25943234  0.03624344     1.59700
Cd194      Cd  0.21528042  0.25410624  0.99016366     1.59600
O195        O  0.22042787  0.26948901  0.05072742    -0.80700
O196        O  0.25031259  0.24958220  0.00102417    -1.91200
Cd197      Cd  0.25997759  0.21459894  0.99657209     1.59900
O198        O  0.19421675  0.26560386  0.01965783    -0.80700
O199        O  0.28721689  0.21063135  0.97019135    -0.79300
C200        C  0.22963972  0.29177227  0.95143864     0.83200
C201        C  0.29314880  0.29808627  0.02415679     0.82900
O202        O  0.29517152  0.24941778  0.96154132    -0.78300
C203        C  0.27145140  0.20757296  0.05146621     0.83700
O204        O  0.25199645  0.28940143  0.95775299    -0.78400
C205        C  0.19867525  0.27034481  0.04205748     0.83800
C206        C  0.20824959  0.19918949  0.97892223     0.84100
O207        O  0.20006736  0.22100693  0.97905559    -0.80800
O208        O  0.70328050  0.54699174  0.24897440    -0.78300
C209        C  0.76978484  0.55340581  0.20537122     0.82700
O210        O  0.71442801  0.46707647  0.21604575    -0.79400
O211        O  0.80135532  0.48393030  0.23229055    -0.80900
O212        O  0.77087465  0.52634984  0.30332800    -0.80700
O213        O  0.71299747  0.54196996  0.28799018    -0.79300
Zn214      Zn  0.72695943  0.52668766  0.22942973     1.55700
O215        O  0.80068785  0.52561371  0.27549963    -0.80700
Cd216      Cd  0.73987321  0.51541040  0.28472664     1.59700
Cd217      Cd  0.74108592  0.47143112  0.24342945     1.59600
O218        O  0.72822380  0.48481129  0.30276011    -0.80700
O219        O  0.74760864  0.50704129  0.25000161    -1.91200
Cd220      Cd  0.78297402  0.51492580  0.24352203     1.59900
O221        O  0.72924075  0.45459139  0.27544375    -0.80700
O222        O  0.78643873  0.54167111  0.21675263    -0.79300
C223        C  0.70356961  0.48323980  0.20321491     0.83200
C224        C  0.69998494  0.55189777  0.27147128     0.82900
O225        O  0.74708558  0.54937932  0.20913581    -0.78300
C226        C  0.79337726  0.52869122  0.29744076     0.83700
O227        O  0.70741488  0.50587643  0.20660162    -0.78400
C228        C  0.72562552  0.46241960  0.29714446     0.83800
C229        C  0.79568021  0.46151563  0.22976688     0.84100
O230        O  0.77370842  0.45396856  0.23298898    -0.80800
O231        O  0.50447897  0.04412756  0.53946038    -0.78300
C232        C  0.55038054  0.98053108  0.54692169     0.82700
O233        O  0.54087222  0.03108419  0.46008199    -0.79400
O234        O  0.52237045  0.94603137  0.47968412    -0.80900
O235        O  0.45032558  0.97730554  0.51834416    -0.80700
O236        O  0.46505358  0.03591674  0.53301251    -0.79300
Zn237      Zn  0.52483758  0.02162377  0.51939078     1.55700
O238        O  0.47974901  0.94929685  0.52198506    -0.80700
Cd239      Cd  0.46886375  0.00834234  0.50660351     1.59700
Cd240      Cd  0.51264237  0.00558872  0.46462239     1.59600
O241        O  0.45238567  0.01976540  0.47434458    -0.80700
O242        O  0.50440620  0.00057005  0.50007403    -1.91200
Cd243      Cd  0.51129593  0.96604421  0.50970315     1.59900
O244        O  0.48182879  0.01821799  0.44600584    -0.80700
O245        O  0.53800317  0.96367445  0.53666269    -0.79300
C246        C  0.55122353  0.04455872  0.47606956     0.83200
C247        C  0.48186793  0.04832342  0.54347575     0.82900
O248        O  0.54698093  0.00285864  0.54166997    -0.78300
C249        C  0.45731570  0.95572701  0.52361333     0.83700
O250        O  0.54611698  0.04257646  0.49861964    -0.78400
C251        C  0.45966677  0.02253095  0.45234569     0.83800
C252        C  0.52548333  0.95095521  0.45716682     0.84100
O253        O  0.52281700  0.97253402  0.44888325    -0.80800
O254        O  0.00246998  0.70379869  0.71163062    -0.78300
C255        C  0.04915080  0.76455856  0.71308408     0.82700
O256        O  0.03621643  0.71626029  0.79539509    -0.79400
O257        O  0.01230455  0.79984108  0.77391155    -0.80900
O258        O  0.94455424  0.76301178  0.73586359    -0.80700
O259        O  0.96263808  0.70628588  0.72020923    -0.79300
Zn260      Zn  0.02073078  0.72281077  0.73662579     1.55700
O261        O  0.97242171  0.79205173  0.72898115    -0.80700
Cd262      Cd  0.96430475  0.73294235  0.74779304     1.59700
Cd263      Cd  0.00717786  0.74035656  0.78976434     1.59600
O264        O  0.94790893  0.72043322  0.77979635    -0.80700
O265        O  0.99900753  0.74356898  0.75442695    -1.91200
Cd266      Cd  0.00441893  0.77809666  0.74381589     1.59900
O267        O  0.97702031  0.72657119  0.80779891    -0.80700
O268        O  0.03388406  0.78101124  0.71955311    -0.79300
C269        C  0.04468340  0.70021250  0.78075590     0.83200
C270        C  0.98028308  0.69814482  0.70716899     0.82900
O271        O  0.04624228  0.74238921  0.71922225    -0.78300
C272        C  0.95028510  0.78442109  0.72874501     0.83700
O273        O  0.03843459  0.69952940  0.75840714    -0.78400
C274        C  0.95546404  0.71969219  0.80185565     0.83800
C275        C  0.01590063  0.79563637  0.79652875     0.84100
O276        O  0.01508563  0.77406810  0.80514901    -0.80800
O277        O  0.45979088  0.80045385  0.24060494    -0.78300
C278        C  0.44741326  0.74124433  0.29268324     0.82700
O279        O  0.53718411  0.78768632  0.28157663    -0.79400
O280        O  0.51637070  0.70241934  0.27175825    -0.80900
O281        O  0.48039578  0.72539005  0.19651980    -0.80700
O282        O  0.46598206  0.78473478  0.20358522    -0.79300
Zn283      Zn  0.47758941  0.77870632  0.26412704     1.55700
O284        O  0.47528322  0.70071089  0.22835551    -0.80700
Cd285      Cd  0.49208255  0.75808998  0.21135871     1.59700
Cd286      Cd  0.53283856  0.76003495  0.25556039     1.59600
O287        O  0.52485876  0.76693561  0.19414980    -0.80700
O288        O  0.49726019  0.75470768  0.24740391    -1.91200
Cd289      Cd  0.48675550  0.72133962  0.25806140     1.59900
O290        O  0.55231888  0.76904494  0.22425461    -0.80700
O291        O  0.45910314  0.72284362  0.28436579    -0.79300
C292        C  0.52090624  0.80118731  0.29156166     0.83200
C293        C  0.45588867  0.80032819  0.21769424     0.82900
O294        O  0.45246458  0.76281025  0.28576255    -0.78300
C295        C  0.47468361  0.70470780  0.20543235     0.83700
O296        O  0.49832110  0.79932237  0.28595770    -0.78400
C297        C  0.54674974  0.77045621  0.20166733     0.83800
C298        C  0.53921307  0.70698774  0.27383208     0.84100
O299        O  0.54811461  0.72787054  0.26866668    -0.80800
O300        O  0.20709892  0.75252688  0.54701166    -0.78300
C301        C  0.20359144  0.70824131  0.47962711     0.82700
O302        O  0.28685282  0.72079039  0.53976794    -0.79400
O303        O  0.27508151  0.73725723  0.45220772    -0.80900
O304        O  0.22537232  0.80564752  0.48103775    -0.80700
O305        O  0.21378515  0.79184141  0.54020297    -0.79300
Zn306      Zn  0.22729752  0.73333002  0.52334912     1.55700
O307        O  0.22889763  0.77711286  0.45215709    -0.80700
Cd308      Cd  0.23941221  0.78896771  0.51193522     1.59700
Cd309      Cd  0.28391363  0.74793726  0.51292942     1.59600
O310        O  0.27064562  0.80807454  0.52176968    -0.80700
O311        O  0.24840277  0.75416644  0.50460944    -1.91200
Cd312      Cd  0.24268707  0.74668142  0.46936627     1.59900
O313        O  0.30061440  0.78040477  0.52409255    -0.80700
O314        O  0.21787228  0.71839661  0.46431176    -0.79300
C315        C  0.26998417  0.70729320  0.54870644     0.83200
C316        C  0.20319952  0.77485146  0.55204903     0.82900
O317        O  0.20451288  0.71332959  0.50230067    -0.78300
C318        C  0.22307560  0.79861081  0.45893807     0.83700
O319        O  0.24753286  0.71036666  0.54304953    -0.78400
C320        C  0.29300423  0.80240350  0.52579052     0.83800
C321        C  0.29704458  0.73386207  0.45946519     0.84100
O322        O  0.30305885  0.73650194  0.48185537    -0.80800
O323        O  0.20420482  0.49698915  0.71247812    -0.78300
C324        C  0.20284959  0.54454984  0.77378953     0.82700
O325        O  0.28533007  0.53657773  0.71439653    -0.79400
O326        O  0.27254650  0.52085068  0.80364153    -0.80900
O327        O  0.23500050  0.44578688  0.77406933    -0.80700
O328        O  0.22012061  0.45967913  0.71500780    -0.79300
Zn329      Zn  0.22732000  0.51886643  0.73091368     1.55700
O330        O  0.23298892  0.47490040  0.80249896    -0.80700
Cd331      Cd  0.24617554  0.46478300  0.74274922     1.59700
Cd332      Cd  0.28456071  0.51166065  0.74339007     1.59600
O333        O  0.27989194  0.45026075  0.73189298    -0.80700
O334        O  0.25010289  0.50049206  0.75043589    -1.91200
Cd335      Cd  0.24232626  0.50689406  0.78548898     1.59900
O336        O  0.30581094  0.48172169  0.73368402    -0.80700
O337        O  0.21369032  0.53150194  0.78967401    -0.79300
C338        C  0.26753949  0.54400652  0.70117777     0.83200
C339        C  0.20432279  0.47457322  0.70638837     0.82900
O340        O  0.20729510  0.54219534  0.75109196    -0.78300
C341        C  0.23107447  0.45264139  0.79606720     0.83700
O342        O  0.24545727  0.53804255  0.70583052    -0.78400
C343        C  0.30148646  0.45914957  0.72992869     0.83800
C344        C  0.29390315  0.52763974  0.79697028     0.84100
O345        O  0.30077722  0.52628757  0.77469608    -0.80800
O346        O  0.49303976  0.46083828  0.95437348    -0.78300
C347        C  0.45597337  0.44990105  0.02402984     0.82700
O348        O  0.46031434  0.53747677  0.96661857    -0.79400
O349        O  0.47947873  0.52372778  0.05341327    -0.80900
O350        O  0.55071550  0.47947550  0.01969380    -0.80700
O351        O  0.53295276  0.46507884  0.96132502    -0.79300
Zn352      Zn  0.47486618  0.47894348  0.98042956     1.55700
O353        O  0.52440563  0.48171699  0.05090471    -0.80700
Cd354      Cd  0.53113207  0.49110911  0.98946485     1.59700
Cd355      Cd  0.48889793  0.53390483  0.99190198     1.59600
O356        O  0.54857080  0.52267919  0.97784859    -0.80700
O357        O  0.49647049  0.49893977  0.99939803    -1.91200
Cd358      Cd  0.49107194  0.49207765  0.03524349     1.59900
O359        O  0.52008941  0.55185011  0.97970711    -0.80700
O360        O  0.46579847  0.46351637  0.04025715    -0.79300
C361        C  0.44566150  0.52110239  0.95875976     0.83200
C362        C  0.51526113  0.45606012  0.94900055     0.82900
O363        O  0.45879870  0.45399019  0.00136387    -0.78300
C364        C  0.54589712  0.47762297  0.04242966     0.83700
O365        O  0.44880078  0.49870288  0.96390963    -0.78400
C366        C  0.54207380  0.54492110  0.97555754     0.83800
C367        C  0.47611018  0.54559310  0.04610906     0.84100
O368        O  0.47867142  0.55148280  0.02374000    -0.80800
C369        C  0.31145735  0.53635073  0.81585386    -0.03000
C370        C  0.33598885  0.54150497  0.80977986    -0.05600
C371        C  0.35317186  0.54690599  0.82799853    -0.20700
C372        C  0.34633090  0.54709592  0.85270877     0.25000
C373        C  0.32145712  0.54344960  0.85868970    -0.18300
C374        C  0.30427416  0.53802946  0.84048784    -0.08200
C375        C  0.36583806  0.54966388  0.87163857    -0.18500
C376        C  0.36387846  0.53949532  0.89392037    -0.23300
C377        C  0.38473202  0.53676255  0.91123214     0.27100
C378        C  0.38406849  0.51707718  0.92746826    -0.20100
C379        C  0.40371841  0.51242273  0.94305047    -0.09700
C380        C  0.42441032  0.52765482  0.94323876    -0.10300
C381        C  0.42478480  0.54807475  0.92778245    -0.03200
C382        C  0.40515859  0.55252076  0.91174510    -0.18300
H383        H  0.34214712  0.54055046  0.79100125     0.10800
H384        H  0.37212247  0.54990959  0.82282858     0.10800
H385        H  0.31520703  0.54438912  0.87742156     0.10500
H386        H  0.28546033  0.53454632  0.84582421     0.11600
H387        H  0.38330438  0.55730025  0.86599492     0.11700
H388        H  0.34711539  0.52994069  0.89862560     0.13600
H389        H  0.36854353  0.50475987  0.92761385     0.10100
H390        H  0.40277353  0.49668506  0.95491238     0.12200
H391        H  0.44050329  0.56013721  0.92759980     0.08800
H392        H  0.40604445  0.56820500  0.89984352     0.11600
C393        C  0.27591450  0.68739405  0.56606526    -0.03000
C394        C  0.29905439  0.68534423  0.57724905    -0.05600
C395        C  0.30361320  0.66671951  0.59422341    -0.20700
C396        C  0.28531547  0.64959772  0.59997184     0.25000
C397        C  0.26220926  0.65181393  0.58877063    -0.18300
C398        C  0.25764435  0.67033712  0.57205609    -0.08200
C399        C  0.28987154  0.63063567  0.61887972    -0.18500
C400        C  0.27767346  0.60925130  0.61893043    -0.23300
C401        C  0.27718006  0.59177086  0.63961971     0.27100
C402        C  0.25687169  0.57619655  0.64132436    -0.20100
C403        C  0.25416637  0.56057168  0.66111881    -0.09700
C404        C  0.27194431  0.55973009  0.67965869    -0.10300
C405        C  0.29295210  0.57445462  0.67753332    -0.03200
C406        C  0.29549512  0.59051226  0.65773706    -0.18300
H407        H  0.31344867  0.69831767  0.57318821     0.10800
H408        H  0.32144576  0.66567708  0.60290030     0.10800
H409        H  0.24722948  0.63974056  0.59338667     0.10500
H410        H  0.23953389  0.67137997  0.56396617     0.11600
H411        H  0.30257420  0.63499979  0.63349206     0.11700
H412        H  0.26563593  0.60505535  0.60369423     0.13600
H413        H  0.24256755  0.57660462  0.62757939     0.10100
H414        H  0.23792982  0.54921955  0.66198496     0.12200
H415        H  0.30703206  0.57403478  0.69146837     0.08800
H416        H  0.31170210  0.60184237  0.65673907     0.11600
C417        C  0.46811548  0.68456665  0.18853365    -0.03000
C418        C  0.46618287  0.66047483  0.19699122    -0.05600
C419        C  0.46226683  0.64123446  0.18062557    -0.20700
C420        C  0.46031056  0.64556903  0.15546064     0.25000
C421        C  0.46112557  0.66982455  0.14713142    -0.18300
C422        C  0.46514460  0.68903365  0.16346297    -0.08200
C423        C  0.45792602  0.62433583  0.13857843    -0.18500
C424        C  0.46456696  0.62518001  0.11488635    -0.23300
C425        C  0.46456730  0.60390184  0.09794519     0.27100
C426        C  0.46591926  0.60854426  0.07283250    -0.20100
C427        C  0.46855333  0.58951470  0.05608518    -0.09700
C428        C  0.47018068  0.56520033  0.06398807    -0.10300
C429        C  0.46802199  0.56036948  0.08910625    -0.03200
C430        C  0.46524589  0.57951201  0.10594642    -0.18300
H431        H  0.46836914  0.65637485  0.21618637     0.10800
H432        H  0.46146599  0.62279573  0.18759480     0.10800
H433        H  0.45869150  0.67418836  0.12806486     0.10500
H434        H  0.46621552  0.70740376  0.15636273     0.11600
H435        H  0.45165656  0.60728605  0.14634182     0.11700
H436        H  0.47108225  0.64222310  0.10731530     0.13600
H437        H  0.46549461  0.62709718  0.06612167     0.10100
H438        H  0.47013001  0.59401626  0.03691746     0.12200
H439        H  0.46928476  0.54187408  0.09583244     0.08800
H440        H  0.46473586  0.57509371  0.12515219     0.11600
C441        C  0.42762877  0.73790483  0.31096796    -0.03000
C442        C  0.41036192  0.75656599  0.31482597    -0.05600
C443        C  0.39201916  0.75410143  0.33243111    -0.20700
C444        C  0.39073906  0.73317186  0.34698648     0.25000
C445        C  0.40789194  0.71434406  0.34315692    -0.18300
C446        C  0.42609217  0.71663749  0.32516762    -0.08200
C447        C  0.37073685  0.73155123  0.36532414    -0.18500
C448        C  0.37251529  0.71921200  0.38646502    -0.23300
C449        C  0.35279266  0.72041699  0.40519043     0.27100
C450        C  0.35903267  0.72124529  0.43002316    -0.20100
C451        C  0.34089551  0.72491399  0.44781675    -0.09700
C452        C  0.31610322  0.72747108  0.44110369    -0.10300
C453        C  0.30978894  0.72517068  0.41630115    -0.03200
C454        C  0.32790727  0.72168617  0.39856556    -0.18300
H455        H  0.41093954  0.77312546  0.30411805     0.10800
H456        H  0.37892796  0.76877252  0.33489817     0.10800
H457        H  0.40705707  0.69773406  0.35374185     0.10500
H458        H  0.43914341  0.70196258  0.32260708     0.11600
H459        H  0.35456891  0.74269084  0.36212311     0.11700
H460        H  0.38956855  0.71010723  0.39113427     0.13600
H461        H  0.37806315  0.72004676  0.43557841     0.10100
H462        H  0.34638773  0.72640250  0.46676071     0.12200
H463        H  0.29086855  0.72667607  0.41046382     0.08800
H464        H  0.32243183  0.72030535  0.37961046     0.11600
C465        C  0.07093047  0.77078911  0.69817227    -0.03000
C466        C  0.09130396  0.75509929  0.69832309    -0.05600
C467        C  0.11144570  0.75953447  0.68332422    -0.20700
C468        C  0.11166913  0.77950179  0.66742131     0.25000
C469        C  0.09165961  0.79580155  0.66775004    -0.18300
C470        C  0.07150506  0.79153546  0.68317486    -0.08200
C471        C  0.13278372  0.78154801  0.65036102    -0.18500
C472        C  0.13229647  0.79333455  0.62881678    -0.23300
C473        C  0.15170324  0.78936737  0.61007670     0.27100
C474        C  0.15749545  0.80777912  0.59324953    -0.20100
C475        C  0.17476488  0.80353034  0.57464746    -0.09700
C476        C  0.18604161  0.78057011  0.57227807    -0.10300
C477        C  0.18016401  0.76225789  0.58914812    -0.03200
C478        C  0.16324177  0.76654850  0.60771900    -0.18300
H479        H  0.09160128  0.73915082  0.70991677     0.10800
H480        H  0.12664219  0.74676955  0.68359887     0.10800
H481        H  0.09140898  0.81169060  0.65613969     0.10500
H482        H  0.05610223  0.80402826  0.68284441     0.11600
H483        H  0.14888958  0.77076728  0.65480943     0.11700
H484        H  0.11688744  0.80488571  0.62405049     0.13600
H485        H  0.14858289  0.82539378  0.59445999     0.10100
H486        H  0.17881997  0.81794261  0.56180276     0.12200
H487        H  0.18846665  0.74435445  0.58785513     0.08800
H488        H  0.15862853  0.75157072  0.61968573     0.11600
C489        C  0.06298895  0.68238581  0.78911106    -0.03000
C490        C  0.08383233  0.69012236  0.80198247    -0.05600
C491        C  0.10371709  0.67426440  0.80515449    -0.20700
C492        C  0.10264309  0.65026531  0.79626908     0.25000
C493        C  0.08107555  0.64211664  0.78480237    -0.18300
C494        C  0.06153706  0.65814301  0.78101809    -0.08200
C495        C  0.12510980  0.63507379  0.79612313    -0.18500
C496        C  0.12449570  0.61071687  0.79851524    -0.23300
C497        C  0.14627178  0.59528144  0.79377297     0.27100
C498        C  0.15032123  0.57438376  0.80789087    -0.20100
C499        C  0.16950876  0.55838022  0.80211811    -0.09700
C500        C  0.18434534  0.56262096  0.78158842    -0.10300
C501        C  0.18041452  0.58367510  0.76761472    -0.03200
C502        C  0.16170889  0.59998523  0.77378095    -0.18300
H503        H  0.08542312  0.70886590  0.80806004     0.10800
H504        H  0.12026098  0.68095106  0.81382353     0.10800
H505        H  0.07991075  0.62386710  0.77730545     0.10500
H506        H  0.04566471  0.65190449  0.77087925     0.11600
H507        H  0.14258839  0.64414372  0.79323092     0.11700
H508        H  0.10748764  0.60177381  0.80365093     0.13600
H509        H  0.13845018  0.57032945  0.82321333     0.10100
H510        H  0.17209160  0.54217592  0.81307318     0.12200
H511        H  0.19162076  0.58734775  0.75170814     0.08800
H512        H  0.15864234  0.61571145  0.76227165     0.11600
C513        C  0.53119009  0.93077490  0.44001681    -0.03000
C514        C  0.52920721  0.90639342  0.44764471    -0.05600
C515        C  0.53134552  0.88732971  0.43080502    -0.20700
C516        C  0.53595848  0.89215053  0.40610182     0.25000
C517        C  0.53903125  0.91645134  0.39861558    -0.18300
C518        C  0.53661578  0.93555834  0.41540733    -0.08200
C519        C  0.53431367  0.87185658  0.38825382    -0.18500
C520        C  0.54522637  0.87200150  0.36619309    -0.23300
C521        C  0.53941225  0.85336012  0.34742656     0.27100
C522        C  0.55758149  0.84513528  0.33115658    -0.20100
C523        C  0.55188660  0.82787767  0.31306133    -0.09700
C524        C  0.52774128  0.81917117  0.31058340    -0.10300
C525        C  0.50956263  0.82789740  0.32660592    -0.03200
C526        C  0.51532266  0.84467814  0.34482808    -0.18300
H527        H  0.52494914  0.90203309  0.46643952     0.10800
H528        H  0.52868862  0.86876948  0.43696928     0.10800
H529        H  0.54198928  0.92086650  0.37960890     0.10500
H530        H  0.53818013  0.95411855  0.40893032     0.11600
H531        H  0.52303964  0.85632836  0.39331104     0.11700
H532        H  0.55844800  0.88608063  0.36166872     0.13600
H533        H  0.57620540  0.85189718  0.33262137     0.10100
H534        H  0.56621911  0.82161836  0.30084203     0.12200
H535        H  0.49076283  0.82162813  0.32517635     0.08800
H536        H  0.50073381  0.85124438  0.35658094     0.11600
C537        C  0.43889873  0.93727882  0.53111056    -0.03000
C538        C  0.44608448  0.91304503  0.53540559    -0.05600
C539        C  0.42861605  0.89514508  0.54051846    -0.20700
C540        C  0.40351748  0.90088861  0.54135381     0.25000
C541        C  0.39638097  0.92537969  0.53813708    -0.18300
C542        C  0.41388734  0.94331208  0.53296141    -0.08200
C543        C  0.38566312  0.88056794  0.54467108    -0.18500
C544        C  0.36165744  0.88206204  0.53885969    -0.23300
C545        C  0.34455218  0.86086616  0.53836600     0.27100
C546        C  0.31925294  0.86549610  0.53698597    -0.20100
C547        C  0.30251894  0.84646692  0.53375460    -0.09700
C548        C  0.31066137  0.82220625  0.53171694    -0.10300
C549        C  0.33593483  0.81742834  0.53377435    -0.03200
C550        C  0.35271575  0.83650459  0.53698756    -0.18300
H551        H  0.46519680  0.90772310  0.53425669     0.10800
H552        H  0.43472707  0.87652721  0.54311653     0.10800
H553        H  0.37739382  0.93092016  0.53943852     0.10500
H554        H  0.40775353  0.96186018  0.53003135     0.11600
H555        H  0.39312056  0.86328349  0.55072939     0.11700
H556        H  0.35406248  0.89935593  0.53303714     0.13600
H557        H  0.31240385  0.88403340  0.53784324     0.10100
H558        H  0.28320524  0.85088394  0.53223731     0.12200
H559        H  0.34287007  0.79898975  0.53209939     0.08800
H560        H  0.37202196  0.83200660  0.53730666     0.11600
C561        C  0.68573469  0.47619118  0.18401873    -0.03000
C562        C  0.67211504  0.45450553  0.18550604    -0.05600
C563        C  0.65342534  0.44962310  0.16854507    -0.20700
C564        C  0.64847686  0.46597322  0.14946139     0.25000
C565        C  0.66260075  0.48733121  0.14767639    -0.18300
C566        C  0.68091637  0.49237055  0.16475820    -0.08200
C567        C  0.62749649  0.46140642  0.13264420    -0.18500
C568        C  0.62743783  0.46928328  0.10936376    -0.23300
C569        C  0.60599714  0.46766450  0.09261622     0.27100
C570        C  0.61019789  0.46924021  0.06740655    -0.20100
C571        C  0.59062195  0.47111178  0.05105031    -0.09700
C572        C  0.56625690  0.47184515  0.05954070    -0.10300
C573        C  0.56195239  0.46926267  0.08473679    -0.03200
C574        C  0.58160516  0.46716883  0.10112525    -0.18300
H575        H  0.67527462  0.44181736  0.20027206     0.10800
H576        H  0.64264617  0.43314769  0.17044801     0.10800
H577        H  0.65892655  0.50069597  0.13365720     0.10500
H578        H  0.69107131  0.50926354  0.16312880     0.11600
H579        H  0.61195702  0.45116619  0.13958919     0.11700
H580        H  0.64405048  0.47740167  0.10201661     0.13600
H581        H  0.62878265  0.46973897  0.06035793     0.10100
H582        H  0.59468814  0.47304239  0.03180870     0.12200
H583        H  0.54342790  0.46977810  0.09190970     0.08800
H584        H  0.57762272  0.46643858  0.12045118     0.11600
C585        C  0.55594972  0.68692381  0.28096316    -0.03000
C586        C  0.54712188  0.66287174  0.28218006    -0.05600
C587        C  0.56332002  0.64336595  0.28501391    -0.20700
C588        C  0.58862437  0.64742457  0.28711221     0.25000
C589        C  0.59742964  0.67152654  0.28714679    -0.18300
C590        C  0.58122507  0.69108312  0.28405986    -0.08200
C591        C  0.60536023  0.62615043  0.28603582    -0.18500
C592        C  0.62844496  0.62622747  0.29469938    -0.23300
C593        C  0.64566432  0.60596023  0.28946129     0.27100
C594        C  0.66344016  0.59931922  0.30672101    -0.20100
C595        C  0.68068521  0.58112955  0.30129379    -0.09700
C596        C  0.68078964  0.56977887  0.27823760    -0.10300
C597        C  0.66287543  0.57641670  0.26107226    -0.03200
C598        C  0.64549414  0.59424518  0.26662131    -0.18300
H599        H  0.52779433  0.65895983  0.27977554     0.10800
H600        H  0.55612956  0.62496245  0.28475887     0.10800
H601        H  0.61689324  0.67529415  0.28815297     0.10500
H602        H  0.58862335  0.70936587  0.28310417     0.11600
H603        H  0.59845648  0.60977810  0.27718824     0.11700
H604        H  0.63496239  0.64140882  0.30566776     0.13600
H605        H  0.66401724  0.60828445  0.32436100     0.10100
H606        H  0.69433791  0.57644747  0.31485672     0.12200
H607        H  0.66245734  0.56802914  0.24315193     0.08800
H608        H  0.63242677  0.59941790  0.25267684     0.11600
C609        C  0.22387059  0.30931181  0.93165118    -0.03000
C610        C  0.20060890  0.31022251  0.92051841    -0.05600
C611        C  0.19604906  0.32660995  0.90138197    -0.20700
C612        C  0.21446777  0.34267247  0.89348415     0.25000
C613        C  0.23767515  0.34160891  0.90454839    -0.18300
C614        C  0.24230871  0.32517324  0.92331147    -0.08200
C615        C  0.20987194  0.36002189  0.87322307    -0.18500
C616        C  0.21958326  0.38257079  0.87363118    -0.23300
C617        C  0.21869161  0.40005983  0.85306288     0.27100
C618        C  0.22097262  0.42492561  0.85842317    -0.20100
C619        C  0.22387776  0.44193240  0.83979565    -0.09700
C620        C  0.22503223  0.43447589  0.81522363    -0.10300
C621        C  0.22193930  0.40959310  0.80971242    -0.03200
C622        C  0.21869725  0.39251273  0.82848201    -0.18300
H623        H  0.18607700  0.29811929  0.92639403     0.10800
H624        H  0.17808014  0.32694929  0.89292615     0.10800
H625        H  0.25248234  0.35324542  0.89840337     0.10500
H626        H  0.26049317  0.32492223  0.93127925     0.11600
H627        H  0.19839060  0.35427836  0.85807272     0.11700
H628        H  0.22893507  0.38865918  0.89007846     0.13600
H629        H  0.22118300  0.43117650  0.87719915     0.10100
H630        H  0.22614952  0.46090097  0.84481478     0.12200
H631        H  0.22276350  0.40324339  0.79100382     0.08800
H632        H  0.21747366  0.37337588  0.82379006     0.11600
C633        C  0.31157856  0.31689534  0.03093525    -0.03000
C634        C  0.31385420  0.32585163  0.05493082    -0.05600
C635        C  0.33194590  0.34320724  0.06070287    -0.20700
C636        C  0.34833014  0.35148618  0.04272222     0.25000
C637        C  0.34560537  0.34290136  0.01869531    -0.18300
C638        C  0.32755962  0.32588377  0.01291194    -0.08200
C639        C  0.36757300  0.36983447  0.04865097    -0.18500
C640        C  0.38957395  0.36929454  0.03734322    -0.23300
C641        C  0.40809449  0.38925813  0.03739209     0.27100
C642        C  0.42666700  0.38805347  0.01967156    -0.20100
C643        C  0.44275939  0.40744483  0.01626209    -0.09700
C644        C  0.44108730  0.42845481  0.03080804    -0.10300
C645        C  0.42366740  0.42923255  0.04971842    -0.03200
C646        C  0.40709910  0.40982706  0.05290140    -0.18300
H647        H  0.30171367  0.31944838  0.06919561     0.10800
H648        H  0.33340911  0.34988193  0.07926341     0.10800
H649        H  0.35723722  0.34959645  0.00414505     0.10500
H650        H  0.32627793  0.31966975  0.99417731     0.11600
H651        H  0.36305725  0.38416395  0.06154433     0.11700
H652        H  0.39353829  0.35385048  0.02550850     0.13600
H653        H  0.42808586  0.37245143  0.00757994     0.10100
H654        H  0.45618517  0.40629081  0.00169991     0.12200
H655        H  0.42205947  0.44528388  0.06115833     0.08800
H656        H  0.39334674  0.41132666  0.06704558     0.11600
C657        C  0.56092243  0.56334200  0.96903421    -0.03000
C658        C  0.58486197  0.55604739  0.96286090    -0.05600
C659        C  0.60336475  0.57331557  0.95936370    -0.20700
C660        C  0.59855911  0.59835107  0.96201179     0.25000
C661        C  0.57434047  0.60573438  0.96741563    -0.18300
C662        C  0.55577083  0.58841189  0.97079406    -0.08200
C663        C  0.61973533  0.61556003  0.96026099    -0.18500
C664        C  0.61826887  0.63998417  0.96299039    -0.23300
C665        C  0.64006828  0.65644810  0.96405145     0.27100
C666        C  0.63632769  0.68169910  0.96206473    -0.20100
C667        C  0.65579541  0.69803778  0.96516016    -0.09700
C668        C  0.67956096  0.68953131  0.97044244    -0.10300
C669        C  0.68349167  0.66425041  0.97178323    -0.03200
C670        C  0.66401779  0.64790844  0.96875544    -0.18300
H671        H  0.58950490  0.53690572  0.96129630     0.10800
H672        H  0.62173477  0.56698321  0.95517645     0.10800
H673        H  0.56951134  0.62469232  0.96967892     0.10500
H674        H  0.53753258  0.59467384  0.97559631     0.11600
H675        H  0.63753013  0.60733797  0.95702217     0.11700
H676        H  0.60050012  0.64861538  0.96492243     0.13600
H677        H  0.61813735  0.68887302  0.95859231     0.10100
H678        H  0.65205317  0.71739366  0.96402728     0.12200
H679        H  0.70151236  0.65705036  0.97595840     0.08800
H680        H  0.66785934  0.62874080  0.97111431     0.11600
C681        C  0.68247386  0.78607621  0.05586931    -0.03000
C682        C  0.65782476  0.78743125  0.04837705    -0.05600
C683        C  0.63897842  0.78995201  0.06555804    -0.20700
C684        C  0.64425770  0.79107341  0.09061489     0.25000
C685        C  0.66902976  0.79145705  0.09798228    -0.18300
C686        C  0.68788300  0.78890701  0.08080208    -0.08200
C687        C  0.62341282  0.79113527  0.10828602    -0.18500
C688        C  0.62562228  0.78451046  0.13188336    -0.23300
C689        C  0.60461026  0.78257192  0.14917307     0.27100
C690        C  0.60946510  0.78327959  0.17432078    -0.20100
C691        C  0.59062446  0.77997846  0.19133541    -0.09700
C692        C  0.56640943  0.77566196  0.18360564    -0.10300
C693        C  0.56146186  0.77516169  0.15840581    -0.03200
C694        C  0.58033018  0.77850362  0.14136783    -0.18300
H695        H  0.65296497  0.78550484  0.02930454     0.10800
H696        H  0.62012600  0.79003219  0.05928897     0.10800
H697        H  0.67407656  0.79339279  0.11695907     0.10500
H698        H  0.70667972  0.78828640  0.08719355     0.11600
H699        H  0.60544417  0.79576625  0.10116935     0.11700
H700        H  0.64353044  0.77990497  0.13911531     0.13600
H701        H  0.62799864  0.78618972  0.18085125     0.10100
H702        H  0.59514719  0.78041860  0.21057700     0.12200
H703        H  0.54307594  0.77161923  0.15179274     0.08800
H704        H  0.57587087  0.77705623  0.12219261     0.11600
C705        C  0.77440009  0.69290799  0.06719545    -0.03000
C706        C  0.77421352  0.70203044  0.09120278    -0.05600
C707        C  0.77808549  0.68653799  0.11097527    -0.20700
C708        C  0.78252921  0.66162534  0.10730570     0.25000
C709        C  0.78362472  0.65254196  0.08327023    -0.18300
C710        C  0.77955689  0.66805506  0.06341553    -0.08200
C711        C  0.78272732  0.64545568  0.12895379    -0.18500
C712        C  0.79192445  0.62268281  0.12920714    -0.23300
C713        C  0.78709368  0.60594819  0.14987736     0.27100
C714        C  0.80451111  0.58829908  0.15651821    -0.20100
C715        C  0.79938519  0.57163771  0.17520899    -0.09700
C716        C  0.77647897  0.57201165  0.18705795    -0.10300
C717        C  0.75911892  0.58968097  0.18030687    -0.03200
C718        C  0.76435747  0.60645138  0.16200669    -0.18300
H719        H  0.77025639  0.72104205  0.09482944     0.10800
H720        H  0.77692099  0.69395245  0.12929746     0.10800
H721        H  0.78642696  0.63333781  0.07972427     0.10500
H722        H  0.77981452  0.66045346  0.04515444     0.11600
H723        H  0.77406173  0.65248591  0.14541665     0.11700
H724        H  0.80275209  0.61596292  0.11396149     0.13600
H725        H  0.82203323  0.58737621  0.14718460     0.10100
H726        H  0.81300340  0.55804230  0.17988110     0.12200
H727        H  0.74126349  0.59038611  0.18900696     0.08800
H728        H  0.75020952  0.61930409  0.15682456     0.11600
C729        C  0.93869760  0.71151747  0.82153539    -0.03000
C730        C  0.94732220  0.71001507  0.84565741    -0.05600
C731        C  0.93120674  0.70543854  0.86487892    -0.20700
C732        C  0.90608731  0.70204899  0.86051904     0.25000
C733        C  0.89751269  0.70234071  0.83628080    -0.18300
C734        C  0.91370523  0.70698168  0.81695022    -0.08200
C735        C  0.88933997  0.70166863  0.88188031    -0.18500
C736        C  0.86577860  0.69431177  0.88127396    -0.23300
C737        C  0.84869684  0.69972062  0.90170778     0.27100
C738        C  0.82875524  0.68424175  0.90663023    -0.20100
C739        C  0.81148583  0.69044319  0.92466284    -0.09700
C740        C  0.81367576  0.71252164  0.93751664    -0.10300
C741        C  0.83383156  0.72773098  0.93274718    -0.03200
C742        C  0.85106629  0.72145810  0.91509899    -0.18300
H743        H  0.96647748  0.71326232  0.84988728     0.10800
H744        H  0.93826846  0.70543223  0.88332519     0.10800
H745        H  0.87818345  0.70031941  0.83221189     0.10500
H746        H  0.90647903  0.70805310  0.79861781     0.11600
H747        H  0.89662993  0.70887775  0.89889444     0.11700
H748        H  0.85858546  0.68490604  0.86536419     0.13600
H749        H  0.82640394  0.66754203  0.89631005     0.10100
H750        H  0.79596744  0.67852293  0.92785521     0.12200
H751        H  0.83601055  0.74488362  0.94232722     0.08800
H752        H  0.86570255  0.73426259  0.91129254     0.11600
C753        C  0.52588602  0.30917764  0.81740594    -0.03000
C754        C  0.55021293  0.31692258  0.82132837    -0.05600
C755        C  0.55533155  0.33565382  0.83813878    -0.20700
C756        C  0.53620946  0.34714786  0.85098925     0.25000
C757        C  0.51210020  0.33864107  0.84777864    -0.18300
C758        C  0.50701923  0.31999463  0.83123008    -0.08200
C759        C  0.54124896  0.36770405  0.86806536    -0.18500
C760        C  0.52538214  0.38649515  0.86990530    -0.23300
C761        C  0.52529817  0.40560851  0.88926874     0.27100
C762        C  0.50403454  0.41987872  0.89139634    -0.20100
C763        C  0.50126944  0.43646767  0.91046371    -0.09700
C764        C  0.51987892  0.43964547  0.92789546    -0.10300
C765        C  0.54180648  0.42630071  0.92527256    -0.03200
C766        C  0.54447526  0.40926943  0.90617373    -0.18300
H767        H  0.56519232  0.30884263  0.81111236     0.10800
H768        H  0.57411824  0.34161565  0.84062566     0.10800
H769        H  0.49704200  0.34640301  0.85813146     0.10500
H770        H  0.48811825  0.31427076  0.82908305     0.11600
H771        H  0.55753159  0.36682554  0.87940661     0.11700
H772        H  0.51007314  0.38695654  0.85717470     0.13600
H773        H  0.48899669  0.41764279  0.87863549     0.10100
H774        H  0.48426095  0.44664604  0.91171267     0.12200
H775        H  0.55651282  0.42845565  0.93839100     0.08800
H776        H  0.56131879  0.39889865  0.90499181     0.11600
C777        C  0.47580151  0.06870559  0.56019753    -0.03000
C778        C  0.49263264  0.08794366  0.56246647    -0.05600
C779        C  0.48826271  0.10716034  0.57850727    -0.20700
C780        C  0.46719414  0.10753989  0.59315660     0.25000
C781        C  0.45002639  0.08844216  0.59088413    -0.18300
C782        C  0.45421344  0.06923166  0.57429796    -0.08200
C783        C  0.46423884  0.12841801  0.61024729    -0.18500
C784        C  0.45260129  0.12717627  0.63188894    -0.23300
C785        C  0.45475966  0.14705417  0.65035435     0.27100
C786        C  0.45559286  0.14098242  0.67518367    -0.20100
C787        C  0.46078211  0.15876165  0.69281275    -0.09700
C788        C  0.46497501  0.18313189  0.68602460    -0.10300
C789        C  0.46262704  0.18947340  0.66127968    -0.03200
C790        C  0.45752782  0.17165938  0.64364923    -0.18300
H791        H  0.50931865  0.08821665  0.55167984     0.10800
H792        H  0.50170668  0.12164400  0.57978060     0.10800
H793        H  0.43335412  0.08844378  0.60165631     0.10500
H794        H  0.44092808  0.05463447  0.57285616     0.11600
H795        H  0.47471442  0.14469713  0.60602559     0.11700
H796        H  0.44412569  0.11016155  0.63741631     0.13600
H797        H  0.45331534  0.12223318  0.68086709     0.10100
H798        H  0.46223348  0.15322692  0.71171598     0.12200
H799        H  0.46541795  0.20808971  0.65541054     0.08800
H800        H  0.45617768  0.17715074  0.62473534     0.11600
C801        C  0.43403298  0.21648436  0.81505344    -0.03000
C802        C  0.44093222  0.20023209  0.83354952    -0.05600
C803        C  0.42571172  0.19679587  0.85384662    -0.20700
C804        C  0.40301607  0.20879959  0.85541342     0.25000
C805        C  0.39556767  0.22405262  0.83624956    -0.18300
C806        C  0.41111413  0.22811939  0.81639518    -0.08200
C807        C  0.38859241  0.20765386  0.87824266    -0.18500
C808        C  0.36401828  0.20575575  0.87822707    -0.23300
C809        C  0.34926748  0.20911884  0.90066424     0.27100
C810        C  0.32845155  0.19463600  0.90466380    -0.20100
C811        C  0.31285775  0.19942789  0.92443938    -0.09700
C812        C  0.31739533  0.21935803  0.93992733    -0.10300
C813        C  0.33841249  0.23364366  0.93608743    -0.03200
C814        C  0.35438742  0.22838409  0.91681858    -0.18300
H815        H  0.45869396  0.19134490  0.83299865     0.10800
H816        H  0.43185963  0.18518583  0.86858155     0.10800
H817        H  0.37834522  0.23388966  0.83728737     0.10500
H818        H  0.40554617  0.24086480  0.80238455     0.11600
H819        H  0.39839199  0.20901589  0.89545455     0.11700
H820        H  0.35440318  0.20220607  0.86121939     0.13600
H821        H  0.32406649  0.17987678  0.89224058     0.10100
H822        H  0.29658437  0.18836005  0.92688032     0.12200
H823        H  0.34219817  0.24919152  0.94771882     0.08800
H824        H  0.37006322  0.24013622  0.91381682     0.11600
C825        C  0.43653092  0.31447964  0.72277036    -0.03000
C826        C  0.42752084  0.31761907  0.69893448    -0.05600
C827        C  0.41052468  0.33618508  0.69382936    -0.20700
C828        C  0.40271532  0.35225269  0.71230225     0.25000
C829        C  0.41186788  0.34913925  0.73604683    -0.18300
C830        C  0.42848311  0.33051684  0.74119882    -0.08200
C831        C  0.38368938  0.37100341  0.70717633    -0.18500
C832        C  0.38303403  0.39245860  0.71922360    -0.23300
C833        C  0.36217993  0.40992171  0.71822981     0.27100
C834        C  0.36629713  0.43426507  0.72499022    -0.20100
C835        C  0.34668034  0.45051531  0.72768009    -0.09700
C836        C  0.32236676  0.44266432  0.72409987    -0.10300
C837        C  0.31828217  0.41846124  0.71660374    -0.03200
C838        C  0.33796913  0.40226746  0.71362002    -0.18300
H839        H  0.43323678  0.30547389  0.68438019     0.10800
H840        H  0.40345940  0.33801482  0.67545422     0.10800
H841        H  0.40565146  0.36064426  0.75091398     0.10500
H842        H  0.43492751  0.32862190  0.75979039     0.11600
H843        H  0.36985488  0.36685827  0.69353897     0.11700
H844        H  0.39832832  0.39730378  0.73099298     0.13600
H845        H  0.38473372  0.44057444  0.72886552     0.10100
H846        H  0.35052779  0.46898308  0.73354602     0.12200
H847        H  0.29979611  0.41181779  0.71371537     0.08800
H848        H  0.33401613  0.38351071  0.70894337     0.11600
C849        C  0.18611559  0.46629644  0.68811824    -0.03000
C850        C  0.19292303  0.45009844  0.66940296    -0.05600
C851        C  0.17697173  0.44558160  0.64983397    -0.20700
C852        C  0.15362948  0.45644195  0.64911367     0.25000
C853        C  0.14631982  0.47158906  0.66852946    -0.18300
C854        C  0.16253597  0.47672009  0.68766281    -0.08200
C855        C  0.13866492  0.45479018  0.62654991    -0.18500
C856        C  0.11398889  0.45342551  0.62671257    -0.23300
C857        C  0.09927553  0.45734186  0.60427064     0.27100
C858        C  0.07840407  0.44309303  0.59948138    -0.20100
C859        C  0.06339819  0.44820754  0.57929866    -0.09700
C860        C  0.06855272  0.46824288  0.56418906    -0.10300
C861        C  0.08944656  0.48241378  0.56905949    -0.03200
C862        C  0.10478521  0.47686384  0.58868997    -0.18300
H863        H  0.21110941  0.44209154  0.66916360     0.10800
H864        H  0.18310530  0.43412070  0.63489069     0.10800
H865        H  0.12865258  0.48065313  0.66817684     0.10500
H866        H  0.15690726  0.48939892  0.70179779     0.11600
H867        H  0.14826432  0.45577331  0.60918636     0.11700
H868        H  0.10432681  0.45030637  0.64376937     0.13600
H869        H  0.07364692  0.42814857  0.61145297     0.10100
H870        H  0.04723332  0.43716100  0.57609867     0.12200
H871        H  0.09378349  0.49801575  0.55779018     0.08800
H872        H  0.12044139  0.48848343  0.59229213     0.11600
C873        C  0.81156309  0.53369485  0.31699685    -0.03000
C874        C  0.80371192  0.53821337  0.34104468    -0.05600
C875        C  0.82067046  0.53982746  0.36011582    -0.20700
C876        C  0.84592033  0.53701644  0.35573935     0.25000
C877        C  0.85385427  0.53307917  0.33152927    -0.18300
C878        C  0.83686489  0.53157953  0.31241223    -0.08200
C879        C  0.86288818  0.53659777  0.37713880    -0.18500
C880        C  0.88756091  0.53816247  0.37548440    -0.23300
C881        C  0.90494325  0.53546033  0.39642253     0.27100
C882        C  0.93019755  0.53728388  0.39157396    -0.20100
C883        C  0.94753969  0.53313805  0.40987926    -0.09700
C884        C  0.94013350  0.52711398  0.43369168    -0.10300
C885        C  0.91487760  0.52605808  0.43887304    -0.03200
C886        C  0.89746517  0.53010341  0.42048940    -0.18300
H887        H  0.78435877  0.53984713  0.34529190     0.10800
H888        H  0.81394163  0.54275993  0.37850949     0.10800
H889        H  0.87297160  0.53016784  0.32718392     0.10500
H890        H  0.84352574  0.52777646  0.29416407     0.11600
H891        H  0.85433892  0.53470341  0.39487628     0.11700
H892        H  0.89582147  0.54126322  0.35776629     0.13600
H893        H  0.93662973  0.54142792  0.37333554     0.10100
H894        H  0.96682988  0.53421973  0.40520127     0.12200
H895        H  0.90853090  0.52142530  0.45700710     0.08800
H896        H  0.87833327  0.52845015  0.42536421     0.11600
C897        C  0.18589834  0.68964028  0.47124116    -0.03000
C898        C  0.19248937  0.67264480  0.45316002    -0.05600
C899        C  0.17689212  0.65310805  0.44759076    -0.20700
C900        C  0.15410175  0.65077652  0.45933830     0.25000
C901        C  0.14704218  0.66849655  0.47656533    -0.18300
C902        C  0.16291696  0.68756920  0.48265021    -0.08200
C903        C  0.13932834  0.62832289  0.45585481    -0.18500
C904        C  0.11463218  0.62834263  0.45656090    -0.23300
C905        C  0.09997294  0.60565906  0.45870761     0.27100
C906        C  0.07653779  0.60442035  0.44813146    -0.20100
C907        C  0.06116264  0.58446742  0.45266706    -0.09700
C908        C  0.06864779  0.56589573  0.46860245    -0.10300
C909        C  0.09220650  0.56694302  0.47889778    -0.03200
C910        C  0.10786482  0.58645920  0.47373951    -0.18300
H911        H  0.21021674  0.67376937  0.44425614     0.10800
H912        H  0.18282662  0.63951241  0.43447216     0.10800
H913        H  0.12982996  0.66689220  0.48632677     0.10500
H914        H  0.15745055  0.70045286  0.49666161     0.11600
H915        H  0.14910066  0.61119210  0.45361271     0.11700
H916        H  0.10480843  0.64558362  0.45652766     0.13600
H917        H  0.06995679  0.61914856  0.43674783     0.10100
H918        H  0.04296730  0.58413415  0.44470401     0.12200
H919        H  0.09832753  0.55284148  0.49128273     0.08800
H920        H  0.12561485  0.58716385  0.48259784     0.11600
C921        C  0.97573142  0.68237230  0.68573099    -0.03000
C922        C  0.99142389  0.68464359  0.66558329    -0.05600
C923        C  0.98945608  0.66894176  0.64574459    -0.20700
C924        C  0.97197479  0.65020734  0.64547093     0.25000
C925        C  0.95562790  0.64817087  0.66538291    -0.18300
C926        C  0.95739266  0.66435561  0.68532264    -0.08200
C927        C  0.97296700  0.63300203  0.62441684    -0.18500
C928        C  0.96004860  0.61221552  0.62183897    -0.23300
C929        C  0.96586689  0.59474764  0.60174650     0.27100
C930        C  0.94731227  0.58058536  0.59095880    -0.20100
C931        C  0.95293625  0.56406446  0.57209511    -0.09700
C932        C  0.97731140  0.56116663  0.56399001    -0.10300
C933        C  0.99579816  0.57517454  0.57510152    -0.03200
C934        C  0.99020289  0.59157863  0.59374654    -0.18300
H935        H  0.00556392  0.69851214  0.66527861     0.10800
H936        H  0.00224600  0.67109950  0.63074358     0.10800
H937        H  0.94182647  0.63405917  0.66587658     0.10500
H938        H  0.94510511  0.66223353  0.70073005     0.11600
H939        H  0.98626974  0.63738369  0.61031554     0.11700
H940        H  0.94546088  0.60764754  0.63447636     0.13600
H941        H  0.92847112  0.58246027  0.59699144     0.10100
H942        H  0.93827660  0.55341506  0.56404604     0.12200
H943        H  0.01479869  0.57333274  0.56957250     0.08800
H944        H  0.00517278  0.60142760  0.60222447     0.11600
C945        C  0.31539068  0.01993510  0.31803647    -0.03000
C946        C  0.31946601  0.00146379  0.33526957    -0.05600
C947        C  0.33605373  0.00477180  0.35428845    -0.20700
C948        C  0.34947901  0.02641998  0.35641474     0.25000
C949        C  0.34539431  0.04519550  0.33939851    -0.18300
C950        C  0.32824703  0.04204881  0.32044058    -0.08200
C951        C  0.36690919  0.02848461  0.37712995    -0.18500
C952        C  0.38804404  0.04120230  0.37655369    -0.23300
C953        C  0.40633076  0.03933437  0.39668313     0.27100
C954        C  0.43152113  0.04017274  0.39130095    -0.20100
C955        C  0.44898726  0.03544971  0.40948413    -0.09700
C956        C  0.44158305  0.03014081  0.43351691    -0.10300
C957        C  0.41640900  0.03088440  0.43914846    -0.03200
C958        C  0.39901858  0.03546042  0.42099709    -0.18300
H959        H  0.30964238  0.98432953  0.33416529     0.10800
H960        H  0.33866964  0.99012792  0.36725134     0.10800
H961        H  0.35514290  0.06233021  0.34090943     0.10500
H962        H  0.32536075  0.05663216  0.30749501     0.11600
H963        H  0.36329057  0.01681703  0.39268913     0.11700
H964        H  0.39316098  0.05090890  0.36008308     0.13600
H965        H  0.43765900  0.04344055  0.37279833     0.10100
H966        H  0.46825722  0.03534754  0.40456908     0.12200
H967        H  0.41002409  0.02720704  0.45748506     0.08800
H968        H  0.37978888  0.03558672  0.42601959     0.11600
C969        C  0.27731448  0.19044808  0.07163010    -0.03000
C970        C  0.27928508  0.19881818  0.09583386    -0.05600
C971        C  0.28183862  0.18233498  0.11513431    -0.20700
C972        C  0.28255724  0.15709158  0.11079851     0.25000
C973        C  0.28127798  0.14875568  0.08646301    -0.18300
C974        C  0.27883606  0.16524173  0.06717021    -0.08200
C975        C  0.28258270  0.14020367  0.13215934    -0.18500
C976        C  0.28813161  0.11626221  0.13065180    -0.23300
C977        C  0.28514282  0.09849672  0.15102420     0.27100
C978        C  0.28401091  0.07362537  0.14507599    -0.20100
C979        C  0.27993913  0.05610739  0.16306477    -0.09700
C980        C  0.27710265  0.06292007  0.18766323    -0.10300
C981        C  0.27908329  0.08775213  0.19386267    -0.03200
C982        C  0.28305692  0.10537680  0.17576030    -0.18300
H983        H  0.27817556  0.21810006  0.09996723     0.10800
H984        H  0.28268315  0.18933696  0.13362340     0.10800
H985        H  0.28105634  0.12954874  0.08210042     0.10500
H986        H  0.27713659  0.15811138  0.04879407     0.11600
H987        H  0.27692933  0.14786343  0.14953956     0.11700
H988        H  0.29407375  0.10876093  0.11330768     0.13600
H989        H  0.28572143  0.06770665  0.12627105     0.10100
H990        H  0.27867677  0.03716741  0.15757116     0.12200
H991        H  0.27712384  0.09362688  0.21264671     0.08800
H992        H  0.28448129  0.12424335  0.18132676     0.11600
C993        C  0.21449759  0.81610388  0.44026845    -0.03000
C994        C  0.20874989  0.84032528  0.44652111    -0.05600
C995        C  0.20408863  0.85754001  0.42830715    -0.20700
C996        C  0.20530811  0.85091104  0.40357505     0.25000
C997        C  0.20914507  0.82629434  0.39744220    -0.18300
C998        C  0.21379162  0.80912937  0.41557643    -0.08200
C999        C  0.20401326  0.87019695  0.38465728    -0.18500
C1000       C  0.21619528  0.86820560  0.36333634    -0.23300
C1001       C  0.21882400  0.88828721  0.34547072     0.27100
C1002       C  0.23906671  0.88769018  0.32966485    -0.20100
C1003       C  0.24318124  0.90659246  0.31324820    -0.09700
C1004       C  0.22687558  0.92638998  0.31191818    -0.10300
C1005       C  0.20604767  0.92664170  0.32704838    -0.03200
C1006       C  0.20208689  0.90779029  0.34380498    -0.18300
H1007       H  0.20879353  0.84621376  0.46541119     0.10800
H1008       H  0.20073020  0.87630990  0.43350824     0.10800
H1009       H  0.20909469  0.82027367  0.37861548     0.10500
H1010       H  0.21766990  0.79053345  0.41012452     0.11600
H1011       H  0.19526706  0.88730777  0.38955128     0.11700
H1012       H  0.22689118  0.85187589  0.35974003     0.13600
H1013       H  0.25209892  0.87277542  0.33038364     0.10100
H1014       H  0.25924002  0.90573218  0.30159408     0.12200
H1015       H  0.19314522  0.94164308  0.32629008     0.08800
H1016       H  0.18591848  0.90852277  0.35526292     0.11600
C1017       C  0.43835615  0.81824221  0.20782150    -0.03000
C1018       C  0.42006991  0.81094837  0.19131644    -0.05600
C1019       C  0.40040065  0.82654013  0.18602973    -0.20700
C1020       C  0.39919163  0.84990636  0.19651052     0.25000
C1021       C  0.41850623  0.85775904  0.21162623    -0.18300
C1022       C  0.43774630  0.84196912  0.21742305    -0.08200
C1023       C  0.37623336  0.86437244  0.19455479    -0.18500
C1024       C  0.37605504  0.88888488  0.19524418    -0.23300
C1025       C  0.35342019  0.90337244  0.19941956     0.27100
C1026       C  0.35165948  0.92692726  0.18963680    -0.20100
C1027       C  0.33226239  0.94235840  0.19626825    -0.09700
C1028       C  0.31483648  0.93476157  0.21348417    -0.10300
C1029       C  0.31622667  0.91102990  0.22289281    -0.03200
C1030       C  0.33516301  0.89533216  0.21568496    -0.18300
H1031       H  0.42008015  0.79262686  0.18387532     0.10800
H1032       H  0.38564683  0.82003379  0.17449582     0.10800
H1033       H  0.41791987  0.87545838  0.22039761     0.10500
H1034       H  0.45164754  0.84793719  0.23023579     0.11600
H1035       H  0.35895909  0.85452390  0.19381048     0.11700
H1036       H  0.39325513  0.89876344  0.19372449     0.13600
H1037       H  0.36567782  0.93359999  0.17733183     0.10100
H1038       H  0.33161569  0.96067819  0.18897428     0.12200
H1039       H  0.30295993  0.90485454  0.23625068     0.08800
H1040       H  0.33630622  0.87747239  0.22396864     0.11600
C1041       C  0.93048670  0.80140063  0.72131507    -0.03000
C1042       C  0.90574782  0.79501418  0.72475813    -0.05600
C1043       C  0.88718495  0.81226528  0.72151877    -0.20700
C1044       C  0.89283044  0.83617782  0.71449551     0.25000
C1045       C  0.91746013  0.84226252  0.70973369    -0.18300
C1046       C  0.93607702  0.82502208  0.71310016    -0.08200
C1047       C  0.87307185  0.85478998  0.71547780    -0.18500
C1048       C  0.87428845  0.87678431  0.70472066    -0.23300
C1049       C  0.85604256  0.89617222  0.71003792     0.27100
C1050       C  0.84997449  0.91335489  0.69209611    -0.20100
C1051       C  0.83325102  0.93211994  0.69723360    -0.09700
C1052       C  0.82278789  0.93429037  0.72061621    -0.10300
C1053       C  0.82929858  0.91731886  0.73863780    -0.03200
C1054       C  0.84567322  0.89849202  0.73342555    -0.18300
H1055       H  0.90076243  0.77701354  0.73108904     0.10800
H1056       H  0.86837426  0.80713921  0.72541866     0.10800
H1057       H  0.92264778  0.86061011  0.70477593     0.10500
H1058       H  0.95495087  0.83054644  0.71028732     0.11600
H1059       H  0.85696148  0.85036172  0.72631680     0.11700
H1060       H  0.88891838  0.88083931  0.69189952     0.13600
H1061       H  0.85804639  0.91212922  0.67404878     0.10100
H1062       H  0.82870515  0.94503436  0.68303062     0.12200
H1063       H  0.82165302  0.91850298  0.75686325     0.08800
H1064       H  0.85060316  0.88608302  0.74794279     0.11600
C1065       C  0.69335235  0.06676161  0.77162820    -0.03000
C1066       C  0.70076602  0.09103279  0.77535128    -0.05600
C1067       C  0.68341143  0.10951980  0.77869756    -0.20700
C1068       C  0.65819423  0.10430625  0.77858910     0.25000
C1069       C  0.65070863  0.07990869  0.77548279    -0.18300
C1070       C  0.66811430  0.06136739  0.77211037    -0.08200
C1071       C  0.64055359  0.12507714  0.77972286    -0.18500
C1072       C  0.61658567  0.12288185  0.78554525    -0.23300
C1073       C  0.59847976  0.14327339  0.78402829     0.27100
C1074       C  0.57339361  0.13749245  0.78306259    -0.20100
C1075       C  0.55572028  0.15569533  0.77978693    -0.09700
C1076       C  0.56268122  0.18026402  0.77756126    -0.10300
C1077       C  0.58768651  0.18623670  0.77968501    -0.03200
C1078       C  0.60538920  0.16800856  0.78294662    -0.18300
H1079       H  0.72002488  0.09590784  0.77510139     0.10800
H1080       H  0.68973867  0.12811158  0.78093242     0.10800
H1081       H  0.63149657  0.07507320  0.77463109     0.10500
H1082       H  0.66173924  0.04290476  0.76912288     0.11600
H1083       H  0.64782110  0.14278048  0.77483633     0.11700
H1084       H  0.60945691  0.10513729  0.79056555     0.13600
H1085       H  0.56744710  0.11868077  0.78413289     0.10100
H1086       H  0.53662229  0.15041242  0.77844127     0.12200
H1087       H  0.59368873  0.20500242  0.77830648     0.08800
H1088       H  0.62434676  0.17352831  0.78449620     0.11600
C1089       C  0.56919216  0.97438788  0.56535966    -0.03000
C1090       C  0.56894642  0.95186539  0.57752977    -0.05600
C1091       C  0.58628840  0.94685603  0.59570839    -0.20700
C1092       C  0.60449145  0.96397515  0.60154686     0.25000
C1093       C  0.60481125  0.98640232  0.58922136    -0.18300
C1094       C  0.58734310  0.99154381  0.57139269    -0.08200
C1095       C  0.62223621  0.95887544  0.62137717    -0.18500
C1096       C  0.64538143  0.96733099  0.62059039    -0.23300
C1097       C  0.66301575  0.96581111  0.64110869     0.27100
C1098       C  0.68805160  0.96872956  0.63600331    -0.20100
C1099       C  0.70505507  0.97110196  0.65487122    -0.09700
C1100       C  0.69732584  0.97097558  0.67936075    -0.10300
C1101       C  0.67237803  0.96693220  0.68454655    -0.03200
C1102       C  0.65535260  0.96436358  0.66559979    -0.18300
H1103       H  0.55506570  0.93837192  0.57336251     0.10800
H1104       H  0.58555386  0.92954603  0.60519080     0.10800
H1105       H  0.61815406  0.00028981  0.59378348     0.10500
H1106       H  0.58800706  0.00908172  0.56237288     0.11600
H1107       H  0.61613308  0.94785922  0.63667397     0.11700
H1108       H  0.65177379  0.97621177  0.60403337     0.13600
H1109       H  0.69439544  0.97000853  0.61729624     0.10100
H1110       H  0.72411429  0.97419066  0.65018513     0.12200
H1111       H  0.66584213  0.96677191  0.70320673     0.08800
H1112       H  0.63613155  0.96261973  0.67025142     0.11600
C1113       C  0.72787670  0.93836637  0.81147191    -0.03000
C1114       C  0.70324533  0.93255708  0.81661917    -0.05600
C1115       C  0.69751568  0.91462215  0.83399055    -0.20700
C1116       C  0.71629665  0.90197515  0.84614133     0.25000
C1117       C  0.74081063  0.90842109  0.84152791    -0.18300
C1118       C  0.74650374  0.92625589  0.82443108    -0.08200
C1119       C  0.71048976  0.88237040  0.86394072    -0.18500
C1120       C  0.72507982  0.86259149  0.86572914    -0.23300
C1121       C  0.72418007  0.84380429  0.88525081     0.27100
C1122       C  0.74351014  0.82690957  0.88593192    -0.20100
C1123       C  0.74557843  0.81035640  0.90501069    -0.09700
C1124       C  0.72813753  0.80993033  0.92386007    -0.10300
C1125       C  0.70800288  0.82592894  0.92274749    -0.03200
C1126       C  0.70609301  0.84291152  0.90367132    -0.18300
H1127       H  0.68846508  0.94169689  0.80711349     0.10800
H1128       H  0.67846796  0.91023905  0.83754581     0.10800
H1129       H  0.75572960  0.89975673  0.85127411     0.10500
H1130       H  0.76567782  0.93041549  0.82129299     0.11600
H1131       H  0.69458778  0.88462124  0.87562425     0.11700
H1132       H  0.73986623  0.86067044  0.85252493     0.13600
H1133       H  0.75764264  0.82699307  0.87199438     0.10100
H1134       H  0.76113373  0.79804125  0.90517568     0.12200
H1135       H  0.69427506  0.82591279  0.93706321     0.08800
H1136       H  0.69078139  0.85542526  0.90375948     0.11600
C1137       C  0.68212626  0.19163602  0.46555720    -0.03000
C1138       C  0.65772940  0.19949721  0.46256919    -0.05600
C1139       C  0.63887107  0.18263692  0.45877716    -0.20700
C1140       C  0.64394667  0.15758667  0.45751406     0.25000
C1141       C  0.66851054  0.14978544  0.45903502    -0.18300
C1142       C  0.68738422  0.16664589  0.46302550    -0.08200
C1143       C  0.62309637  0.14014682  0.45812783    -0.18500
C1144       C  0.62457145  0.11666326  0.45100748    -0.23300
C1145       C  0.60483307  0.09888180  0.45664668     0.27100
C1146       C  0.59973945  0.07958564  0.44051637    -0.20100
C1147       C  0.58191525  0.06208048  0.44638683    -0.09700
C1148       C  0.56942786  0.06325643  0.46882647    -0.10300
C1149       C  0.57480709  0.08246543  0.48499982    -0.03200
C1150       C  0.59218102  0.10008602  0.47896454    -0.18300
H1151       H  0.65298893  0.21859849  0.46429135     0.10800
H1152       H  0.62011344  0.18912211  0.45775124     0.10800
H1153       H  0.67311275  0.13060567  0.45862972     0.10500
H1154       H  0.70595996  0.15996626  0.46516453     0.11600
H1155       H  0.60589400  0.14679876  0.46572132     0.11700
H1156       H  0.64066036  0.11014702  0.44125719     0.13600
H1157       H  0.60953304  0.07810600  0.42335783     0.10100
H1158       H  0.57828355  0.04738719  0.43365479     0.12200
H1159       H  0.56557528  0.08389788  0.50246884     0.08800
H1160       H  0.59619852  0.11427893  0.49214327     0.11600
C1161       C  0.81547576  0.31622944  0.52614481    -0.03000
C1162       C  0.81460110  0.32982575  0.54792752    -0.05600
C1163       C  0.83203702  0.34814247  0.55247036    -0.20700
C1164       C  0.85095223  0.35271588  0.53562859     0.25000
C1165       C  0.85200455  0.33873562  0.51411831    -0.18300
C1166       C  0.83452688  0.32078626  0.50945814    -0.08200
C1167       C  0.86847125  0.37312626  0.53969874    -0.18500
C1168       C  0.89170935  0.37217969  0.53127168    -0.23300
C1169       C  0.90911168  0.39304367  0.53101253     0.27100
C1170       C  0.93412099  0.38803534  0.52750526    -0.20100
C1171       C  0.95094410  0.40687339  0.52395468    -0.09700
C1172       C  0.94316465  0.43131377  0.52360922    -0.10300
C1173       C  0.91818486  0.43645347  0.52776426    -0.03200
C1174       C  0.90129993  0.41751527  0.53143499    -0.18300
H1175       H  0.80003810  0.32682626  0.56104923     0.10800
H1176       H  0.83068880  0.35884236  0.56906106     0.10800
H1177       H  0.86583819  0.34219797  0.50035545     0.10500
H1178       H  0.83575355  0.31066983  0.49249390     0.11600
H1179       H  0.86201018  0.38909196  0.54951635     0.11700
H1180       H  0.89839271  0.35512269  0.52364529     0.13600
H1181       H  0.94061684  0.36938136  0.52690258     0.10100
H1182       H  0.96999762  0.40217004  0.52081438     0.12200
H1183       H  0.91155361  0.45505472  0.52750014     0.08800
H1184       H  0.88209746  0.42209741  0.53350723     0.11600
C1185       C  0.72436537  0.31817840  0.43181891    -0.03000
C1186       C  0.70075357  0.32000485  0.42159664    -0.05600
C1187       C  0.69584272  0.33720986  0.40336932    -0.20700
C1188       C  0.71423394  0.35327437  0.39551277     0.25000
C1189       C  0.73779504  0.35148190  0.40577843    -0.18300
C1190       C  0.74280832  0.33409311  0.42363208    -0.08200
C1191       C  0.70901353  0.37106667  0.37584855    -0.18500
C1192       C  0.71932664  0.39333058  0.37569644    -0.23300
C1193       C  0.71681972  0.41091315  0.35535999     0.27100
C1194       C  0.72004947  0.43575607  0.36036697    -0.20100
C1195       C  0.72129944  0.45264717  0.34143545    -0.09700
C1196       C  0.71987213  0.44498976  0.31694449    -0.10300
C1197       C  0.71560020  0.42021395  0.31192154    -0.03200
C1198       C  0.71401078  0.40331026  0.33096584    -0.18300
H1199       H  0.68621205  0.30787414  0.42738667     0.10800
H1200       H  0.67762026  0.33810870  0.39550956     0.10800
H1201       H  0.75256056  0.36316027  0.39962240     0.10500
H1202       H  0.76121166  0.33312240  0.43104074     0.11600
H1203       H  0.69615944  0.36590514  0.36161163     0.11700
H1204       H  0.73017404  0.39907430  0.39132771     0.13600
H1205       H  0.72236325  0.44203767  0.37899503     0.10100
H1206       H  0.72463568  0.47156997  0.34601898     0.12200
H1207       H  0.71447193  0.41374018  0.29326627     0.08800
H1208       H  0.71196744  0.38420688  0.32645307     0.11600
C1209       C  0.68143878  0.28160029  0.56006539    -0.03000
C1210       C  0.65676031  0.28306778  0.55268937    -0.05600
C1211       C  0.63798164  0.28576401  0.56991984    -0.20700
C1212       C  0.64330984  0.28686405  0.59495808     0.25000
C1213       C  0.66808747  0.28650775  0.60231686    -0.18300
C1214       C  0.68689464  0.28382168  0.58506683    -0.08200
C1215       C  0.62247374  0.28795022  0.61261020    -0.18500
C1216       C  0.62424803  0.28078765  0.63607161    -0.23300
C1217       C  0.60314945  0.27965752  0.65336314     0.27100
C1218       C  0.60816733  0.27871350  0.67845531    -0.20100
C1219       C  0.58926821  0.27560926  0.69541438    -0.09700
C1220       C  0.56478007  0.27312296  0.68770226    -0.10300
C1221       C  0.55961352  0.27457677  0.66259781    -0.03200
C1222       C  0.57856782  0.27775728  0.64559173    -0.18300
H1223       H  0.65184113  0.28149209  0.53360243     0.10800
H1224       H  0.61912633  0.28625625  0.56368166     0.10800
H1225       H  0.67314719  0.28823112  0.62131851     0.10500
H1226       H  0.70570143  0.28298459  0.59140070     0.11600
H1227       H  0.60484838  0.29378233  0.60554803     0.11700
H1228       H  0.64186067  0.27490649  0.64311127     0.13600
H1229       H  0.62689050  0.27999172  0.68497358     0.10100
H1230       H  0.59398692  0.27452508  0.71457833     0.12200
H1231       H  0.54099373  0.27252900  0.65599989     0.08800
H1232       H  0.57387803  0.27773503  0.62642498     0.11600
C1233       C  0.77433702  0.19077642  0.56555144    -0.03000
C1234       C  0.77794673  0.19884752  0.58968684    -0.05600
C1235       C  0.78205382  0.18217778  0.60851298    -0.20700
C1236       C  0.78292462  0.15705455  0.60372438     0.25000
C1237       C  0.77954906  0.14891545  0.57955987    -0.18300
C1238       C  0.77535277  0.16559982  0.56071255    -0.08200
C1239       C  0.78551666  0.13997918  0.62462924    -0.18500
C1240       C  0.79392727  0.11693588  0.62249513    -0.23300
C1241       C  0.79382225  0.09908530  0.64293639     0.27100
C1242       C  0.79369520  0.07410982  0.63728843    -0.20100
C1243       C  0.79100899  0.05669114  0.65567421    -0.09700
C1244       C  0.78855262  0.06387061  0.68021284    -0.10300
C1245       C  0.79030578  0.08878265  0.68603990    -0.03200
C1246       C  0.79299951  0.10620135  0.66764347    -0.18300
H1247       H  0.77716881  0.21807100  0.59416418     0.10800
H1248       H  0.78434082  0.18893962  0.62696850     0.10800
H1249       H  0.77926183  0.12968814  0.57518418     0.10500
H1250       H  0.77236792  0.15870710  0.54241897     0.11600
H1251       H  0.77966500  0.14676383  0.64230397     0.11700
H1252       H  0.79982245  0.11029772  0.60476537     0.13600
H1253       H  0.79468042  0.06807076  0.61847710     0.10100
H1254       H  0.78995559  0.03764167  0.65052610     0.12200
H1255       H  0.78887582  0.09492639  0.70478490     0.08800
H1256       H  0.79412323  0.12516463  0.67294613     0.11600
C1257       C  0.18623098  0.05994154  0.28271696    -0.03000
C1258       C  0.16216672  0.05250241  0.28833090    -0.05600
C1259       C  0.14315761  0.06959365  0.29051055    -0.20700
C1260       C  0.14757223  0.09456642  0.28697565     0.25000
C1261       C  0.17195530  0.10214122  0.28276076    -0.18300
C1262       C  0.19098548  0.08503439  0.28062135    -0.08200
C1263       C  0.12620292  0.11180029  0.28746055    -0.18500
C1264       C  0.12684345  0.13463276  0.27829516    -0.23300
C1265       C  0.10542965  0.15167750  0.27746712     0.27100
C1266       C  0.11011876  0.17665475  0.27451691    -0.20100
C1267       C  0.09090162  0.19337822  0.27198089    -0.09700
C1268       C  0.06631116  0.18559521  0.27202871    -0.10300
C1269       C  0.06149282  0.16058649  0.27526025    -0.03200
C1270       C  0.08080598  0.14380201  0.27797168    -0.18300
H1271       H  0.15780680  0.03334922  0.29028161     0.10800
H1272       H  0.12473518  0.06315668  0.29417786     0.10800
H1273       H  0.17658757  0.12117814  0.28087253     0.10500
H1274       H  0.20931022  0.09146542  0.27650310     0.11600
H1275       H  0.10912488  0.10498918  0.29498596     0.05300
H1276       H  0.14385237  0.14153176  0.27077635     0.13600
H1277       H  0.12883158  0.18328334  0.27391930     0.10100
H1278       H  0.09540808  0.21242636  0.26945434     0.12200
H1279       H  0.04279821  0.15389967  0.27524259     0.08800
H1280       H  0.07632042  0.12468267  0.27962774     0.11600
C1281       C  0.81562887  0.44379488  0.22419230    -0.03000
C1282       C  0.84026995  0.45148338  0.22446160    -0.05600
C1283       C  0.85939822  0.43462437  0.22239438    -0.20700
C1284       C  0.85450713  0.40968311  0.21960695     0.25000
C1285       C  0.82988433  0.40197672  0.21828934    -0.18300
C1286       C  0.81065142  0.41887471  0.22061882    -0.08200
C1287       C  0.87543889  0.39226134  0.22080900    -0.18500
C1288       C  0.87509016  0.36946642  0.21156085    -0.23300
C1289       C  0.89549054  0.35182928  0.21564573     0.27100
C1290       C  0.90039259  0.33355786  0.19826868    -0.20100
C1291       C  0.91861105  0.31594384  0.20251274    -0.09700
C1292       C  0.93183493  0.31592761  0.22454052    -0.10300
C1293       C  0.92693401  0.33428760  0.24184379    -0.03200
C1294       C  0.90908862  0.35203552  0.23744918    -0.18300
H1295       H  0.84488054  0.47048290  0.22723302     0.10800
H1296       H  0.87816632  0.44105862  0.22359938     0.10800
H1297       H  0.82538533  0.38284168  0.21666076     0.10500
H1298       H  0.79191004  0.41231231  0.22041396     0.11600
H1299       H  0.89202787  0.39867682  0.22975129     0.11700
H1300       H  0.85963905  0.36355955  0.20052901     0.13600
H1301       H  0.89000857  0.33285497  0.18141983     0.10100
H1302       H  0.92184539  0.30194805  0.18890897     0.12200
H1303       H  0.93677123  0.33480636  0.25901595     0.08800
H1304       H  0.90540510  0.36538677  0.25157067     0.11600
C1305       C  0.17777979  0.27577912  0.05869517    -0.03000
C1306       C  0.15354415  0.27578309  0.04985358    -0.05600
C1307       C  0.13365571  0.27803511  0.06587069    -0.20700
C1308       C  0.13742435  0.28057570  0.09108677     0.25000
C1309       C  0.16169633  0.28120836  0.09992452    -0.18300
C1310       C  0.18160754  0.27891132  0.08389691    -0.08200
C1311       C  0.11566252  0.28045315  0.10759493    -0.18500
C1312       C  0.11591138  0.28937243  0.13056702    -0.23300
C1313       C  0.09520331  0.28693436  0.14824366     0.27100
C1314       C  0.10012138  0.29079999  0.17310672    -0.20100
C1315       C  0.08199500  0.28698522  0.19074435    -0.09700
C1316       C  0.05832962  0.27938489  0.18395601    -0.10300
C1317       C  0.05297560  0.27664683  0.15899587    -0.03200
C1318       C  0.07117147  0.28037640  0.14131467    -0.18300
H1319       H  0.14985864  0.27331815  0.03058073     0.10800
H1320       H  0.11519992  0.27732890  0.05856038     0.10800
H1321       H  0.16549603  0.28239959  0.11925790     0.10500
H1322       H  0.19999632  0.27874330  0.09139042     0.11600
H1323       H  0.09913122  0.27213765  0.10043958     0.11700
H1324       H  0.13247810  0.29801771  0.13730639     0.13600
H1325       H  0.11832451  0.29610138  0.17902110     0.10100
H1326       H  0.08673469  0.28944729  0.20978874     0.12200
H1327       H  0.03489174  0.27092653  0.15312304     0.08800
H1328       H  0.06620832  0.27791214  0.12238229     0.11600
C1329       C  0.03740792  0.43762062  0.43078869    -0.03000
C1330       C  0.03602966  0.44464996  0.40617559    -0.05600
C1331       C  0.03815993  0.42736409  0.38754130    -0.20700
C1332       C  0.04202315  0.40269042  0.39295168     0.25000
C1333       C  0.04502327  0.39578987  0.41748905    -0.18300
C1334       C  0.04268545  0.41310808  0.43622414    -0.08200
C1335       C  0.03924644  0.38461324  0.37290531    -0.18500
C1336       C  0.04750291  0.36148691  0.37354010    -0.23300
C1337       C  0.04035331  0.34369540  0.35435775     0.27100
C1338       C  0.05742574  0.32677575  0.34527571    -0.20100
C1339       C  0.05068804  0.31028529  0.32683815    -0.09700
C1340       C  0.02655651  0.31002547  0.31768262    -0.10300
C1341       C  0.00933928  0.32648734  0.32744398    -0.03200
C1342       C  0.01617766  0.34317685  0.34545695    -0.18300
H1343       H  0.03200442  0.46333061  0.40125986     0.10800
H1344       H  0.03572203  0.43315838  0.36880927     0.10800
H1345       H  0.04763769  0.37688446  0.42240234     0.10500
H1346       H  0.04387472  0.40707644  0.45498488     0.11600
H1347       H  0.02909528  0.39053291  0.35690544     0.11700
H1348       H  0.05962720  0.35551058  0.38804613     0.13600
H1349       H  0.07607255  0.32664244  0.35212189     0.10100
H1350       H  0.06429111  0.29764062  0.31986990     0.12200
H1351       H  0.99056204  0.32668338  0.32095839     0.08800
H1352       H  0.00242904  0.35555617  0.35263532     0.11600
C1353       C  0.93473958  0.21749542  0.31517132    -0.03000
C1354       C  0.94162764  0.20169509  0.33405191    -0.05600
C1355       C  0.92557899  0.19736848  0.35355477    -0.20700
C1356       C  0.90214453  0.20805424  0.35397319     0.25000
C1357       C  0.89489416  0.22292579  0.33441875    -0.18300
C1358       C  0.91116763  0.22782147  0.31535369    -0.08200
C1359       C  0.88669946  0.20607734  0.37616011    -0.18500
C1360       C  0.86203274  0.20525130  0.37528152    -0.23300
C1361       C  0.84652793  0.20832780  0.39733186     0.27100
C1362       C  0.82409972  0.19586399  0.39920197    -0.20100
C1363       C  0.80791829  0.20084843  0.41850786    -0.09700
C1364       C  0.81357899  0.21903621  0.43567717    -0.10300
C1365       C  0.83619715  0.23117444  0.43402747    -0.03200
C1366       C  0.85264388  0.22568793  0.41522200    -0.18300
H1367       H  0.95985617  0.19377912  0.33437197     0.10800
H1368       H  0.93163241  0.18610115  0.36859207     0.10800
H1369       H  0.87716575  0.23186929  0.33451339     0.10500
H1370       H  0.90556105  0.24015750  0.30099258     0.11600
H1371       H  0.89589113  0.20607170  0.39375013     0.11700
H1372       H  0.85287241  0.20299094  0.35781500     0.13600
H1373       H  0.81891000  0.18262746  0.38543803     0.10100
H1374       H  0.79043870  0.19147545  0.41926547     0.12200
H1375       H  0.84088200  0.24536688  0.44699793     0.08800
H1376       H  0.86954664  0.23598446  0.41394674     0.11600
C1377       C  0.93459153  0.93670374  0.03404101    -0.03000
C1378       C  0.90984506  0.94342438  0.03720129    -0.05600
C1379       C  0.89176719  0.92568983  0.04086904    -0.20700
C1380       C  0.89795167  0.90086963  0.04122838     0.25000
C1381       C  0.92282728  0.89419357  0.03931501    -0.18300
C1382       C  0.94091571  0.91190570  0.03571444    -0.08200
C1383       C  0.87801491  0.88241082  0.04259818    -0.18500
C1384       C  0.87976759  0.86064215  0.03133489    -0.23300
C1385       C  0.85882935  0.84358741  0.02862064     0.27100
C1386       C  0.85752293  0.82957867  0.00726773    -0.20100
C1387       C  0.83781108  0.81393100  0.00324071    -0.09700
C1388       C  0.81906380  0.81147761  0.02072484    -0.10300
C1389       C  0.82073573  0.82483197  0.04260683    -0.03200
C1390       C  0.84039669  0.84094259  0.04646002    -0.18300
H1391       H  0.90429510  0.96234390  0.03608689     0.10800
H1392       H  0.87276747  0.93132269  0.04248569     0.10800
H1393       H  0.92836273  0.87527330  0.04032009     0.10500
H1394       H  0.95979533  0.90607747  0.03361461     0.11600
H1395       H  0.86060110  0.88789864  0.05057772     0.11700
H1396       H  0.89632988  0.85629187  0.02116757     0.13600
H1397       H  0.87157514  0.83114185  0.99334950     0.10100
H1398       H  0.83730544  0.80367906  0.98632270     0.12200
H1399       H  0.80668323  0.82314460  0.05648412     0.08800
H1400       H  0.84124743  0.85114140  0.06338302     0.11600
C1401       C  0.19163344  0.17871147  0.97243226    -0.03000
C1402       C  0.20026429  0.15455404  0.97319060    -0.05600
C1403       C  0.18417896  0.13499229  0.96999078    -0.20700
C1404       C  0.15913491  0.13902684  0.96564607     0.25000
C1405       C  0.15057643  0.16316792  0.96387717    -0.18300
C1406       C  0.16667810  0.18280993  0.96723955    -0.08200
C1407       C  0.14223681  0.11778778  0.96616493    -0.18500
C1408       C  0.11963887  0.11752165  0.95616183    -0.23300
C1409       C  0.10196749  0.09747564  0.96106909     0.27100
C1410       C  0.08431169  0.09091578  0.94354543    -0.20100
C1411       C  0.06661052  0.07305437  0.94876020    -0.09700
C1412       C  0.06599610  0.06187635  0.97181618    -0.10300
C1413       C  0.08376125  0.06850383  0.98922409    -0.03200
C1414       C  0.10146884  0.08601274  0.98394348    -0.18300
H1415       H  0.21935315  0.15066352  0.97711520     0.10800
H1416       H  0.19121122  0.11661224  0.97161075     0.10800
H1417       H  0.13128015  0.16698973  0.96113987     0.10500
H1418       H  0.15940066  0.20114884  0.96664730     0.11600
H1419       H  0.14861452  0.10171563  0.97578642     0.11700
H1420       H  0.11377289  0.13234685  0.94448184     0.13600
H1421       H  0.08415180  0.09972033  0.92587854     0.10100
H1422       H  0.05306388  0.06847671  0.93503912     0.12200
H1423       H  0.08381570  0.06039001  0.00721348     0.08800
H1424       H  0.11425135  0.09114026  0.99818386     0.11600
C1425       C  0.02660868  0.93579245  0.93772839    -0.03000
C1426       C  0.03384013  0.91227937  0.94490179    -0.05600
C1427       C  0.03771590  0.89396333  0.92750383    -0.20700
C1428       C  0.03422664  0.89857247  0.90254684     0.25000
C1429       C  0.02824429  0.92247126  0.89527444    -0.18300
C1430       C  0.02444064  0.94081464  0.91268231    -0.08200
C1431       C  0.03626667  0.87777691  0.88503415    -0.18500
C1432       C  0.02665589  0.87794984  0.86234105    -0.23300
C1433       C  0.02618888  0.85637373  0.84578319     0.27100
C1434       C  0.02283903  0.86020707  0.82068599    -0.20100
C1435       C  0.02017355  0.84052844  0.80462559    -0.09700
C1436       C  0.02055197  0.81644687  0.81332417    -0.10300
C1437       C  0.02427792  0.81255956  0.83841821    -0.03200
C1438       C  0.02702970  0.83226380  0.85448616    -0.18300
H1439       H  0.03598986  0.90784438  0.96402686     0.10800
H1440       H  0.04268157  0.87587783  0.93366356     0.10800
H1441       H  0.02629056  0.92722263  0.87626122     0.10500
H1442       H  0.01916137  0.95880205  0.90650323     0.11600
H1443       H  0.04498313  0.86130487  0.89167548     0.11700
H1444       H  0.01809033  0.89436232  0.85545328     0.13600
H1445       H  0.02193618  0.87855647  0.81349958     0.10100
H1446       H  0.01729024  0.84424159  0.78543836     0.12200
H1447       H  0.02451024  0.79426422  0.84578002     0.08800
H1448       H  0.02885639  0.82845074  0.87374192     0.11600
C1449       C  0.18187097  0.96848619  0.19174469    -0.03000
C1450       C  0.15745191  0.96871744  0.20008632    -0.05600
C1451       C  0.13799414  0.96647775  0.18367431    -0.20700
C1452       C  0.14243687  0.96350845  0.15863889     0.25000
C1453       C  0.16684125  0.96192728  0.15035418    -0.18300
C1454       C  0.18637316  0.96444387  0.16677017    -0.08200
C1455       C  0.12139981  0.96527231  0.14158501    -0.18500
C1456       C  0.12121133  0.95574614  0.11892627    -0.23300
C1457       C  0.10107648  0.96117626  0.10156209     0.27100
C1458       C  0.09316919  0.94340669  0.08484650    -0.20100
C1459       C  0.07459251  0.94873505  0.06796013    -0.09700
C1460       C  0.06408211  0.97214293  0.06717336    -0.10300
C1461       C  0.07229262  0.98992477  0.08379163    -0.03200
C1462       C  0.09049431  0.98450915  0.10078878    -0.18300
H1463       H  0.15328111  0.97178035  0.21917681     0.10800
H1464       H  0.11936129  0.96786463  0.19047467     0.10800
H1465       H  0.17092812  0.96013631  0.13110400     0.10500
H1466       H  0.20495998  0.96417494  0.15975496     0.11600
H1467       H  0.10536370  0.97524491  0.14794929     0.11700
H1468       H  0.13591131  0.94373630  0.11299236     0.13600
H1469       H  0.10130407  0.92538332  0.08494598     0.10100
H1470       H  0.06882321  0.93473480  0.05523055     0.12200
H1471       H  0.06473779  0.00819400  0.08360002     0.08800
H1472       H  0.09670947  0.99882944  0.11294503     0.11600
C1473       C  0.82109713  0.03102937  0.81147020    -0.03000
C1474       C  0.83286987  0.05382392  0.81179265    -0.05600
C1475       C  0.85027328  0.05920732  0.82990182    -0.20700
C1476       C  0.85561108  0.04214087  0.84821777     0.25000
C1477       C  0.84369296  0.01946387  0.84782378    -0.18300
C1478       C  0.82670071  0.01400182  0.82971572    -0.08200
C1479       C  0.87475349  0.04724370  0.86676310    -0.18500
C1480       C  0.87314268  0.03808126  0.88948434    -0.23300
C1481       C  0.89353225  0.03786455  0.90739021     0.27100
C1482       C  0.88795279  0.03333903  0.93195727    -0.20100
C1483       C  0.90662659  0.02935627  0.94892966    -0.09700
C1484       C  0.93137560  0.02952341  0.94162383    -0.10300
C1485       C  0.93701579  0.03484569  0.91716258    -0.03200
C1486       C  0.91830231  0.03898110  0.90019308    -0.18300
H1487       H  0.82901393  0.06721100  0.79781825     0.10800
H1488       H  0.85952692  0.07666628  0.82966145     0.10800
H1489       H  0.84797239  0.00555436  0.86114274     0.10500
H1490       H  0.81799235  0.99626397  0.82998135     0.11600
H1491       H  0.89047557  0.05811697  0.86141527     0.11700
H1492       H  0.85614853  0.02935892  0.89506887     0.13600
H1493       H  0.86902204  0.03215732  0.93791330     0.10100
H1494       H  0.90159422  0.02528988  0.96759581     0.12200
H1495       H  0.95588302  0.03507046  0.91093138     0.08800
H1496       H  0.92332952  0.04181108  0.88132414     0.11600
C1497       C  0.96299276  0.18451317  0.18757771    -0.03000
C1498       C  0.96221902  0.15973222  0.19411242    -0.05600
C1499       C  0.95765394  0.14176319  0.17653821    -0.20700
C1500       C  0.95402465  0.14814513  0.15205288     0.25000
C1501       C  0.95329980  0.17295235  0.14572288    -0.18300
C1502       C  0.95773441  0.19095050  0.16330695    -0.08200
C1503       C  0.95245803  0.12858961  0.13335081    -0.18500
C1504       C  0.96284091  0.13108927  0.11121697    -0.23300
C1505       C  0.96577406  0.11054016  0.09388780     0.27100
C1506       C  0.98735294  0.10929996  0.08003897    -0.20100
C1507       C  0.99156322  0.08968127  0.06438188    -0.09700
C1508       C  0.97401383  0.07108264  0.06178920    -0.10300
C1509       C  0.95186505  0.07280296  0.07485197    -0.03200
C1510       C  0.94786097  0.09229798  0.09099225    -0.18300
H1511       H  0.96602966  0.15410278  0.21265973     0.10800
H1512       H  0.95809429  0.12277855  0.18187667     0.10800
H1513       H  0.94978779  0.17845144  0.12708242     0.10500
H1514       H  0.95783728  0.20985100  0.15769868     0.11600
H1515       H  0.94548761  0.11089976  0.13887817     0.11700
H1516       H  0.97224772  0.14796575  0.10681458     0.13600
H1517       H  0.00130971  0.12324091  0.08183566     0.10100
H1518       H  0.00868901  0.08905319  0.05431147     0.12200
H1519       H  0.93796952  0.05882129  0.07304555     0.08800
H1520       H  0.93079495  0.09314159  0.10111656     0.11600
loop_ 
_geom_bond_atom_site_label_1 
_geom_bond_atom_site_label_2 
_geom_bond_distance 
_geom_bond_site_symmetry_2 
_ccdc_geom_bond_type 
O1           C17   1.272   1_545  A
O1           Zn7   1.995       .  S
C2           O18   1.271   1_556  A
C2           O15   1.277       .  A
C2         C1412   1.484       .  S
O3           C16   1.276       .  A
O3          Cd10   2.088       .  S
O4           C22   1.277       .  A
O4          Cd13   2.077   1_655  S
O5           C19   1.277       .  A
O5           Cd9   2.073   1_556  S
O6           C17   1.276       .  A
O6           Cd9   2.091       .  S
Zn7          O18   1.987       .  S
Zn7          O20   1.989       .  S
Zn7          O12   1.918   1_455  S
O8           C19   1.278       .  A
O8          Cd13   2.081   1_565  S
Cd9          O11   2.082   1_455  S
Cd9          O12   2.006   1_465  S
Cd10         O14   2.076   1_545  S
Cd10         O23   2.068   1_554  S
Cd10         O12   2.008       .  S
O11          C21   1.278       .  A
O12         Cd13   2.012   1_654  S
Cd13         O15   2.100       .  S
O14          C21   1.277       .  A
C16          O20   1.271   1_655  A
C16        C1508   1.478       .  S
C17        C1460   1.482       .  S
C19        C1425   1.485       .  S
C21        C1377   1.486       .  S
C22          O23   1.276       .  A
C22        C1484   1.483       .  S
O24          C40   1.273       .  A
O24         Zn30   2.008       .  S
C25          O41   1.273       .  A
C25          O38   1.276       .  A
C25        C1353   1.472       .  S
O26          C39   1.276       .  A
O26         Cd33   2.087       .  S
O27          C45   1.277       .  A
O27         Cd36   2.090   1_455  S
O28          C42   1.278       .  A
O28         Cd32   2.081       .  S
O29          C40   1.277       .  A
O29         Cd32   2.102       .  S
Zn30         O41   2.004       .  S
Zn30         O43   2.013       .  S
Zn30         O35   1.933       .  S
O31          C42   1.276       .  A
O31         Cd36   2.074       .  S
Cd32         O34   2.083   1_655  S
Cd32         O35   2.014       .  S
Cd33         O37   2.071       .  S
Cd33         O46   2.082       .  S
Cd33         O35   2.003   1_455  S
O34          C44   1.278       .  A
O35         Cd36   2.010       .  S
Cd36         O38   2.082       .  S
O37          C44   1.277       .  A
C39          O43   1.274   1_455  A
C39        C1340   1.484       .  S
C40        C1292   1.486       .  S
C42        C1497   1.485       .  S
C44        C1316   1.485       .  S
C45          O46   1.277       .  A
C45        C1268   1.493       .  S
O47          C63   1.273       .  A
O47         Zn53   2.005       .  S
C48          O64   1.275       .  A
C48          O61   1.276       .  A
C48        C1185   1.483       .  S
O49          C62   1.277       .  A
O49         Cd56   2.099       .  S
O50          C68   1.277       .  A
O50         Cd59   2.078       .  S
O51          C65   1.277       .  A
O51         Cd55   2.082       .  S
O52          C63   1.277       .  A
O52         Cd55   2.093       .  S
Zn53         O64   2.015       .  S
Zn53         O66   1.998       .  S
Zn53         O58   1.932       .  S
O54          C65   1.276       .  A
O54         Cd59   2.072       .  S
Cd55         O57   2.090       .  S
Cd55         O58   2.014       .  S
Cd56         O60   2.076       .  S
Cd56         O69   2.080       .  S
Cd56         O58   2.014       .  S
O57          C67   1.279       .  A
O58         Cd59   2.008       .  S
Cd59         O61   2.084       .  S
O60          C67   1.277       .  A
C62          O66   1.272       .  A
C62        C1161   1.484       .  S
C63        C1364   1.476       .  S
C65        C1137   1.486       .  S
C67        C1233   1.488       .  S
C68          O69   1.277       .  A
C68        C1209   1.487       .  S
O70          C86   1.272       .  A
O70         Zn76   1.991       .  S
C71          O87   1.272       .  A
C71          O84   1.274       .  A
C71        C1052   1.480       .  S
O72          C85   1.275       .  A
O72         Cd79   2.084       .  S
O73          C91   1.275       .  A
O73         Cd82   2.070   1_545  S
O74          C88   1.277       .  A
O74         Cd78   2.078       .  S
O75          C86   1.277       .  A
O75         Cd78   2.100       .  S
Zn76         O87   2.002       .  S
Zn76         O89   1.988   1_565  S
Zn76         O81   1.918   1_565  S
O77          C88   1.275       .  A
O77         Cd82   2.059       .  S
Cd78         O80   2.086   1_565  S
Cd78         O81   2.016   1_565  S
Cd79         O83   2.072       .  S
Cd79         O92   2.074       .  S
Cd79         O81   2.007       .  S
O80          C90   1.278       .  A
O81         Cd82   2.003   1_545  S
Cd82         O84   2.078       .  S
O83          C90   1.277       .  A
C85          O89   1.272       .  A
C85        C1473   1.477       .  S
C86        C1113   1.486       .  S
C88        C1100   1.481       .  S
C90        C1065   1.487       .  S
C91          O92   1.276       .  A
C91        C1244   1.484       .  S
O93         C109   1.271       .  A
O93         Zn99   1.994       .  S
C94         O110   1.272       .  A
C94         O107   1.275       .  A
C94        C1028   1.474       .  S
O95         C108   1.279       .  A
O95        Cd102   2.106       .  S
O96         C114   1.276       .  A
O96        Cd105   2.069   1_545  S
O97         C111   1.276       .  A
O97        Cd101   2.067       .  S
O98         C109   1.275       .  A
O98        Cd101   2.086       .  S
Zn99        O110   2.012       .  S
Zn99        O112   1.997       .  S
Zn99        O104   1.928       .  S
O100        C111   1.277       .  A
O100       Cd105   2.078       .  S
Cd101       O103   2.074   1_565  S
Cd101       O104   2.007       .  S
Cd102       O106   2.095       .  S
Cd102       O115   2.093       .  S
Cd102       O104   2.021   1_545  S
O103        C113   1.276       .  A
O104       Cd105   2.005       .  S
Cd105       O107   2.085       .  S
O106        C113   1.279       .  A
C108        O112   1.274   1_545  A
C108        C945   1.483       .  S
C109       C1004   1.478       .  S
C111       C1449   1.483       .  S
C113       C1257   1.490       .  S
C114        O115   1.278       .  A
C114        C980   1.488       .  S
O116        C132   1.275       .  A
O116       Zn122   2.026       .  S
C117        O133   1.276   1_655  A
C117        O130   1.278       .  A
C117        C932   1.487       .  S
O118        C131   1.276       .  A
O118       Cd125   2.089       .  S
O119        C137   1.277       .  A
O119       Cd128   2.087       .  S
O120        C134   1.275       .  A
O120       Cd124   2.068   1_655  S
O121        C132   1.275       .  A
O121       Cd124   2.083       .  S
Zn122       O133   2.011       .  S
Zn122       O135   2.017       .  S
Zn122       O127   1.936       .  S
O123        C134   1.278       .  A
O123       Cd128   2.091       .  S
Cd124       O126   2.073       .  S
Cd124       O127   2.001       .  S
Cd125       O129   2.081       .  S
Cd125       O138   2.066   1_455  S
Cd125       O127   2.009       .  S
O126        C136   1.277       .  A
O127       Cd128   2.021   1_455  S
Cd128       O130   2.093       .  S
O129        C136   1.277       .  A
C131        O135   1.274       .  A
C131        C860   1.481       .  S
C132        C908   1.477       .  S
C134        C884   1.487       .  S
C136       C1329   1.486       .  S
C137        O138   1.275       .  A
C137       C1172   1.486       .  S
O139        C155   1.272       .  A
O139       Zn145   2.003       .  S
C140        O156   1.273       .  A
C140        O153   1.277       .  A
C140        C753   1.487       .  S
O141        C154   1.278       .  A
O141       Cd148   2.100       .  S
O142        C160   1.277       .  A
O142       Cd151   2.070       .  S
O143        C157   1.276       .  A
O143       Cd147   2.072       .  S
O144        C155   1.275       .  A
O144       Cd147   2.081       .  S
Zn145       O156   2.004       .  S
Zn145       O158   1.997       .  S
Zn145       O150   1.927       .  S
O146        C157   1.277       .  A
O146       Cd151   2.082       .  S
Cd147       O149   2.076       .  S
Cd147       O150   2.004       .  S
Cd148       O152   2.086       .  S
Cd148       O161   2.085       .  S
Cd148       O150   2.016       .  S
O149        C159   1.277       .  A
O150       Cd151   2.011       .  S
Cd151       O153   2.094       .  S
O152        C159   1.278       .  A
C154        O158   1.272       .  A
C154        C825   1.486       .  S
C155        C801   1.471       .  S
C157       C1076   1.487       .  S
C159        C788   1.488       .  S
C160        O161   1.278       .  A
C160       C1220   1.486       .  S
O162        C178   1.269       .  A
O162       Zn168   1.972       .  S
C163        O179   1.272       .  A
C163        O176   1.276       .  A
C163       C1124   1.480       .  S
O164        C177   1.276       .  A
O164       Cd171   2.096       .  S
O165        C183   1.276       .  A
O165       Cd174   2.073   1_554  S
O166        C180   1.278       .  A
O166       Cd170   2.080       .  S
O167        C178   1.276       .  A
O167       Cd170   2.097       .  S
Zn168       O179   1.994       .  S
Zn168       O181   1.989       .  S
Zn168       O173   1.913       .  S
O169        C180   1.277       .  A
O169       Cd174   2.076       .  S
Cd170       O172   2.083   1_556  S
Cd170       O173   2.018       .  S
Cd171       O175   2.067       .  S
Cd171       O184   2.076       .  S
Cd171       O173   2.008   1_554  S
O172        C182   1.278       .  A
O173       Cd174   2.008       .  S
Cd174       O176   2.094       .  S
O175        C182   1.276       .  A
C177        O181   1.271   1_554  A
C177       C1388   1.482       .  S
C178        C740   1.477       .  S
C180        C668   1.486       .  S
C182        C705   1.484       .  S
C183        O184   1.277       .  A
C183        C681   1.485       .  S
O185        C201   1.272       .  A
O185       Zn191   1.994   1_554  S
C186        O202   1.272       .  A
C186        O199   1.275       .  A
C186        C812   1.475       .  S
O187        C200   1.277       .  A
O187       Cd194   2.097       .  S
O188        C206   1.275       .  A
O188       Cd197   2.064       .  S
O189        C203   1.277       .  A
O189       Cd193   2.082       .  S
O190        C201   1.278       .  A
O190       Cd193   2.101       .  S
Zn191       O202   2.007       .  S
Zn191       O204   1.999       .  S
Zn191       O196   1.926   1_556  S
O192        C203   1.277       .  A
O192       Cd197   2.077   1_554  S
Cd193       O195   2.082       .  S
Cd193       O196   2.014       .  S
Cd194       O198   2.077   1_556  S
Cd194       O207   2.086       .  S
Cd194       O196   2.015   1_556  S
O195        C205   1.278       .  A
O196       Cd197   2.004   1_554  S
Cd197       O199   2.081       .  S
O198        C205   1.277       .  A
C200        O204   1.273       .  A
C200        C609   1.486       .  S
C201        C633   1.487       .  S
C203        C969   1.487       .  S
C205       C1305   1.487       .  S
C206        O207   1.277       .  A
C206       C1401   1.486       .  S
O208        C224   1.273       .  A
O208       Zn214   2.010       .  S
C209        O225   1.273       .  A
C209        O222   1.276       .  A
C209        C716   1.479       .  S
O210        C223   1.278       .  A
O210       Cd217   2.102       .  S
O211        C229   1.275       .  A
O211       Cd220   2.065       .  S
O212        C226   1.274       .  A
O212       Cd216   2.062       .  S
O213        C224   1.274       .  A
O213       Cd216   2.072       .  S
Zn214       O225   1.999       .  S
Zn214       O227   1.999       .  S
Zn214       O219   1.925       .  S
O215        C226   1.277       .  A
O215       Cd220   2.084       .  S
Cd216       O218   2.052       .  S
Cd216       O219   2.000       .  S
Cd217       O221   2.087       .  S
Cd217       O230   2.096       .  S
Cd217       O219   2.018       .  S
O218        C228   1.274       .  A
O219       Cd220   2.006       .  S
Cd220       O222   2.087       .  S
O221        C228   1.278       .  A
C223        O227   1.273       .  A
C223        C561   1.483       .  S
C224        C596   1.479       .  S
C226        C873   1.485       .  S
C228       C1196   1.482       .  S
C229        O230   1.279       .  A
C229       C1281   1.488       .  S
O231        C247   1.272       .  A
O231       Zn237   1.988       .  S
C232        O248   1.273   1_565  A
C232        O245   1.275       .  A
C232       C1089   1.479       .  S
O233        C246   1.277       .  A
O233       Cd240   2.095       .  S
O234        C252   1.275       .  A
O234       Cd243   2.064       .  S
O235        C249   1.277       .  A
O235       Cd239   2.084   1_565  S
O236        C247   1.277       .  A
O236       Cd239   2.100       .  S
Zn237       O248   2.003       .  S
Zn237       O250   1.992       .  S
Zn237       O242   1.921       .  S
O238        C249   1.275       .  A
O238       Cd243   2.063       .  S
Cd239       O241   2.081       .  S
Cd239       O242   2.014       .  S
Cd240       O244   2.084       .  S
Cd240       O253   2.080   1_545  S
Cd240       O242   2.013       .  S
O241        C251   1.278       .  A
O242       Cd243   2.003   1_545  S
Cd243       O245   2.078       .  S
O244        C251   1.278       .  A
C246        O250   1.271       .  A
C246       C1148   1.482       .  S
C247        C777   1.480       .  S
C249        C537   1.484       .  S
C251        C956   1.488       .  S
C252        O253   1.278       .  A
C252        C513   1.483       .  S
O254        C270   1.272   1_455  A
O254       Zn260   1.987       .  S
C255        O271   1.273       .  A
C255        O268   1.276       .  A
C255        C465   1.481       .  S
O256        C269   1.275       .  A
O256       Cd263   2.085       .  S
O257        C275   1.276       .  A
O257       Cd266   2.078       .  S
O258        C272   1.278       .  A
O258       Cd262   2.076       .  S
O259        C270   1.277       .  A
O259       Cd262   2.102       .  S
Zn260       O271   2.000       .  S
Zn260       O273   1.999       .  S
Zn260       O265   1.907   1_455  S
O261        C272   1.277       .  A
O261       Cd266   2.071   1_655  S
Cd262       O264   2.086       .  S
Cd262       O265   2.012       .  S
Cd263       O267   2.062   1_455  S
Cd263       O276   2.076       .  S
Cd263       O265   1.995   1_455  S
O264        C274   1.278       .  A
O265       Cd266   2.005   1_655  S
Cd266       O268   2.090       .  S
O267        C274   1.276       .  A
C269        O273   1.272       .  A
C269        C489   1.471       .  S
C270        C921   1.478       .  S
C272       C1041   1.483       .  S
C274        C729   1.483       .  S
C275        O276   1.276       .  A
C275       C1436   1.486       .  S
O277        C293   1.273       .  A
O277       Zn283   2.009       .  S
C278        O294   1.274       .  A
C278        O291   1.276       .  A
C278        C441   1.483       .  S
O279        C292   1.277       .  A
O279       Cd286   2.092       .  S
O280        C298   1.275       .  A
O280       Cd289   2.061       .  S
O281        C295   1.275       .  A
O281       Cd285   2.069       .  S
O282        C293   1.275       .  A
O282       Cd285   2.084       .  S
Zn283       O294   2.011       .  S
Zn283       O296   1.995       .  S
Zn283       O288   1.926       .  S
O284        C295   1.276       .  A
O284       Cd289   2.077       .  S
Cd285       O287   2.077       .  S
Cd285       O288   2.004       .  S
Cd286       O290   2.077       .  S
Cd286       O299   2.081       .  S
Cd286       O288   2.011       .  S
O287        C297   1.277       .  A
O288       Cd289   2.007       .  S
Cd289       O291   2.085       .  S
O290        C297   1.277       .  A
C292        O296   1.272       .  A
C292        C524   1.481       .  S
C293       C1017   1.474       .  S
C295        C417   1.484       .  S
C297        C692   1.486       .  S
C298        O299   1.277       .  A
C298        C585   1.482       .  S
O300        C316   1.272       .  A
O300       Zn306   1.997       .  S
C301        O317   1.274       .  A
C301        O314   1.274       .  A
C301        C897   1.477       .  S
O302        C315   1.279       .  A
O302       Cd309   2.102       .  S
O303        C321   1.275       .  A
O303       Cd312   2.063       .  S
O304        C318   1.276       .  A
O304       Cd308   2.073       .  S
O305        C316   1.275       .  A
O305       Cd308   2.090       .  S
Zn306       O317   2.018       .  S
Zn306       O319   1.994       .  S
Zn306       O311   1.921       .  S
O307        C318   1.275       .  A
O307       Cd312   2.062       .  S
Cd308       O310   2.070       .  S
Cd308       O311   2.010       .  S
Cd309       O313   2.091       .  S
Cd309       O322   2.090       .  S
Cd309       O311   2.017       .  S
O310        C320   1.276       .  A
O311       Cd312   1.998       .  S
Cd312       O314   2.077       .  S
O313        C320   1.279       .  A
C315        O319   1.273       .  A
C315        C393   1.486       .  S
C316        C476   1.482       .  S
C318        C993   1.481       .  S
C320        C548   1.487       .  S
C321        O322   1.278       .  A
C321        C452   1.486       .  S
O323        C339   1.273       .  A
O323       Zn329   2.011       .  S
C324        O340   1.273       .  A
C324        O337   1.274       .  A
C324        C500   1.475       .  S
O325        C338   1.278       .  A
O325       Cd332   2.100       .  S
O326        C344   1.275       .  A
O326       Cd335   2.070       .  S
O327        C341   1.279       .  A
O327       Cd331   2.101       .  S
O328        C339   1.278       .  A
O328       Cd331   2.099       .  S
Zn329       O340   2.009       .  S
Zn329       O342   1.995       .  S
Zn329       O334   1.926       .  S
O330        C341   1.274       .  A
O330       Cd335   2.054       .  S
Cd331       O333   2.087       .  S
Cd331       O334   2.014       .  S
Cd332       O336   2.076       .  S
Cd332       O345   2.089       .  S
Cd332       O334   2.012       .  S
O333        C343   1.278       .  A
O334       Cd335   1.996       .  S
Cd335       O337   2.074       .  S
O336        C343   1.277       .  A
C338        O342   1.273       .  A
C338        C404   1.483       .  S
C339        C849   1.480       .  S
C341        C620   1.487       .  S
C343        C836   1.487       .  S
C344        O345   1.278       .  A
C344        C369   1.488       .  S
O346        C362   1.272       .  A
O346       Zn352   1.998       .  S
C347        O363   1.272       .  A
C347        O360   1.278       .  A
C347        C644   1.478       .  S
O348        C361   1.276       .  A
O348       Cd355   2.094       .  S
O349        C367   1.279       .  A
O349       Cd358   2.096       .  S
O350        C364   1.277       .  A
O350       Cd354   2.073   1_554  S
O351        C362   1.277       .  A
O351       Cd354   2.101       .  S
Zn352       O363   1.992   1_556  S
Zn352       O365   2.004       .  S
Zn352       O357   1.915       .  S
O353        C364   1.279       .  A
O353       Cd358   2.088       .  S
Cd354       O356   2.078       .  S
Cd354       O357   2.010       .  S
Cd355       O359   2.076       .  S
Cd355       O368   2.067   1_556  S
Cd355       O357   2.006       .  S
O356        C366   1.277       .  A
O357       Cd358   2.022   1_556  S
Cd358       O360   2.105       .  S
O359        C366   1.276       .  A
C361        O365   1.273       .  A
C361        C380   1.482       .  S
C362        C764   1.485       .  S
C364        C572   1.487       .  S
C366        C657   1.486       .  S
C367        O368   1.276       .  A
C367        C428   1.488       .  S
C369        C370   1.406       .  A
C369        C374   1.408       .  A
C370        C371   1.400       .  A
C370        H383   1.083       .  S
C371        C372   1.404       .  A
C371        H384   1.083       .  S
C372        C373   1.408       .  A
C372        C375   1.492       .  S
C373        C374   1.400       .  A
C373        H385   1.082       .  S
C374        H386   1.083       .  S
C375        C376   1.348       .  D
C375        H387   1.085       .  S
C376        C377   1.488       .  S
C376        H388   1.085       .  S
C377        C378   1.402       .  A
C377        C382   1.410       .  A
C378        C379   1.394       .  A
C378        H389   1.083       .  S
C379        C380   1.404       .  A
C379        H390   1.084       .  S
C380        C381   1.407       .  A
C381        C382   1.406       .  A
C381        H391   1.083       .  S
C382        H392   1.082       .  S
C393        C394   1.407       .  A
C393        C398   1.406       .  A
C394        C395   1.406       .  A
C394        H407   1.083       .  S
C395        C396   1.406       .  A
C395        H408   1.083       .  S
C396        C397   1.406       .  A
C396        C399   1.491       .  S
C397        C398   1.393       .  A
C397        H409   1.082       .  S
C398        H410   1.083       .  S
C399        C400   1.349       .  D
C399        H411   1.085       .  S
C400        C401   1.487       .  S
C400        H412   1.086       .  S
C401        C402   1.402       .  A
C401        C406   1.410       .  A
C402        C403   1.392       .  A
C402        H413   1.084       .  S
C403        C404   1.405       .  A
C403        H414   1.083       .  S
C404        C405   1.406       .  A
C405        C406   1.406       .  A
C405        H415   1.083       .  S
C406        H416   1.082       .  S
C417        C418   1.406       .  A
C417        C422   1.406       .  A
C418        C419   1.400       .  A
C418        H431   1.083       .  S
C419        C420   1.404       .  A
C419        H432   1.083       .  S
C420        C421   1.409       .  A
C420        C423   1.491       .  S
C421        C422   1.398       .  A
C421        H433   1.081       .  S
C422        H434   1.083       .  S
C423        C424   1.348       .  D
C423        H435   1.084       .  S
C424        C425   1.489       .  S
C424        H436   1.084       .  S
C425        C426   1.402       .  A
C425        C430   1.410       .  A
C426        C427   1.395       .  A
C426        H437   1.084       .  S
C427        C428   1.407       .  A
C427        H438   1.083       .  S
C428        C429   1.407       .  A
C429        C430   1.404       .  A
C429        H439   1.083       .  S
C430        H440   1.081       .  S
C441        C442   1.405       .  A
C441        C446   1.407       .  A
C442        C443   1.395       .  A
C442        H455   1.084       .  S
C443        C444   1.402       .  A
C443        H456   1.083       .  S
C444        C445   1.407       .  A
C444        C447   1.484       .  S
C445        C446   1.403       .  A
C445        H457   1.083       .  S
C446        H458   1.082       .  S
C447        C448   1.347       .  D
C447        H459   1.086       .  S
C448        C449   1.486       .  S
C448        H460   1.086       .  S
C449        C450   1.403       .  A
C449        C454   1.405       .  A
C450        C451   1.401       .  A
C450        H461   1.083       .  S
C451        C452   1.407       .  A
C451        H462   1.083       .  S
C452        C453   1.407       .  A
C453        C454   1.397       .  A
C453        H463   1.083       .  S
C454        H464   1.083       .  S
C465        C466   1.404       .  A
C465        C470   1.406       .  A
C466        C467   1.392       .  A
C466        H479   1.083       .  S
C467        C468   1.402       .  A
C467        H480   1.084       .  S
C468        C469   1.409       .  A
C468        C471   1.486       .  S
C469        C470   1.405       .  A
C469        H481   1.081       .  S
C470        H482   1.083       .  S
C471        C472   1.348       .  D
C471        H483   1.086       .  S
C472        C473   1.488       .  S
C472        H484   1.084       .  S
C473        C474   1.406       .  A
C473        C478   1.406       .  A
C474        C475   1.405       .  A
C474        H485   1.083       .  S
C475        C476   1.407       .  A
C475        H486   1.083       .  S
C476        C477   1.404       .  A
C477        C478   1.392       .  A
C477        H487   1.083       .  S
C478        H488   1.083       .  S
C489        C490   1.403       .  A
C489        C494   1.403       .  A
C490        C491   1.400       .  A
C490        H503   1.084       .  S
C491        C492   1.404       .  A
C491        H504   1.083       .  S
C492        C493   1.405       .  A
C492        C495   1.480       .  S
C493        C494   1.396       .  A
C493        H505   1.083       .  S
C494        H506   1.083       .  S
C495        C496   1.344       .  D
C495        H507   1.086       .  S
C496        C497   1.479       .  S
C496        H508   1.086       .  S
C497        C498   1.403       .  A
C497        C502   1.405       .  A
C498        C499   1.400       .  A
C498        H509   1.083       .  S
C499        C500   1.405       .  A
C499        H510   1.083       .  S
C500        C501   1.404       .  A
C501        C502   1.396       .  A
C501        H511   1.083       .  S
C502        H512   1.083       .  S
C513        C514   1.407       .  A
C513        C518   1.406       .  A
C514        C515   1.397       .  A
C514        H527   1.083       .  S
C515        C516   1.402       .  A
C515        H528   1.084       .  S
C516        C517   1.406       .  A
C516        C519   1.482       .  S
C517        C518   1.399       .  A
C517        H529   1.082       .  S
C518        H530   1.083       .  S
C519        C520   1.347       .  D
C519        H531   1.087       .  S
C520        C521   1.483       .  S
C520        H532   1.086       .  S
C521        C522   1.405       .  A
C521        C526   1.404       .  A
C522        C523   1.404       .  A
C522        H533   1.083       .  S
C523        C524   1.406       .  A
C523        H534   1.083       .  S
C524        C525   1.406       .  A
C525        C526   1.392       .  A
C525        H535   1.083       .  S
C526        H536   1.083       .  S
C537        C538   1.406       .  A
C537        C542   1.405       .  A
C538        C539   1.397       .  A
C538        H551   1.083       .  S
C539        C540   1.403       .  A
C539        H552   1.084       .  S
C540        C541   1.410       .  A
C540        C543   1.492       .  S
C541        C542   1.400       .  A
C541        H553   1.080       .  S
C542        H554   1.083       .  S
C543        C544   1.349       .  D
C543        H555   1.084       .  S
C544        C545   1.491       .  S
C544        H556   1.084       .  S
C545        C546   1.403       .  A
C545        C550   1.410       .  A
C546        C547   1.398       .  A
C546        H557   1.084       .  S
C547        C548   1.407       .  A
C547        H558   1.083       .  S
C548        C549   1.406       .  A
C549        C550   1.401       .  A
C549        H559   1.083       .  S
C550        H560   1.080       .  S
C561        C562   1.405       .  A
C561        C566   1.406       .  A
C562        C563   1.404       .  A
C562        H575   1.083       .  S
C563        C564   1.406       .  A
C563        H576   1.084       .  S
C564        C565   1.406       .  A
C564        C567   1.490       .  S
C565        C566   1.396       .  A
C565        H577   1.082       .  S
C566        H578   1.084       .  S
C567        C568   1.348       .  D
C567        H579   1.086       .  S
C568        C569   1.488       .  S
C568        H580   1.087       .  S
C569        C570   1.403       .  A
C569        C574   1.408       .  A
C570        C571   1.397       .  A
C570        H581   1.084       .  S
C571        C572   1.407       .  A
C571        H582   1.083       .  S
C572        C573   1.408       .  A
C573        C574   1.403       .  A
C573        H583   1.083       .  S
C574        H584   1.082       .  S
C585        C586   1.407       .  A
C585        C590   1.406       .  A
C586        C587   1.396       .  A
C586        H599   1.083       .  S
C587        C588   1.401       .  A
C587        H600   1.083       .  S
C588        C589   1.407       .  A
C588        C591   1.481       .  S
C589        C590   1.400       .  A
C589        H601   1.082       .  S
C590        H602   1.083       .  S
C591        C592   1.345       .  D
C591        H603   1.087       .  S
C592        C593   1.481       .  S
C592        H604   1.086       .  S
C593        C594   1.403       .  A
C593        C598   1.405       .  A
C594        C595   1.401       .  A
C594        H605   1.084       .  S
C595        C596   1.407       .  A
C595        H606   1.083       .  S
C596        C597   1.405       .  A
C597        C598   1.394       .  A
C597        H607   1.083       .  S
C598        H608   1.083       .  S
C609        C610   1.408       .  A
C609        C614   1.406       .  A
C610        C611   1.406       .  A
C610        H623   1.083       .  S
C611        C612   1.405       .  A
C611        H624   1.083       .  S
C612        C613   1.404       .  A
C612        C615   1.486       .  S
C613        C614   1.393       .  A
C613        H625   1.083       .  S
C614        H626   1.083       .  S
C615        C616   1.346       .  D
C615        H627   1.086       .  S
C616        C617   1.483       .  S
C616        H628   1.087       .  S
C617        C618   1.400       .  A
C617        C622   1.408       .  A
C618        C619   1.394       .  A
C618        H629   1.083       .  S
C619        C620   1.407       .  A
C619        H630   1.083       .  S
C620        C621   1.408       .  A
C621        C622   1.405       .  A
C621        H631   1.083       .  S
C622        H632   1.082       .  S
C633        C634   1.408       .  A
C633        C638   1.407       .  A
C634        C635   1.407       .  A
C634        H647   1.083       .  S
C635        C636   1.406       .  A
C635        H648   1.083       .  S
C636        C637   1.405       .  A
C636        C639   1.489       .  S
C637        C638   1.392       .  A
C637        H649   1.083       .  S
C638        H650   1.083   1_554  S
C639        C640   1.349       .  D
C639        H651   1.083       .  S
C640        C641   1.490       .  S
C640        H652   1.087       .  S
C641        C642   1.403       .  A
C641        C646   1.412       .  A
C642        C643   1.392       .  A
C642        H653   1.084       .  S
C643        C644   1.402       .  A
C643        H654   1.084       .  S
C644        C645   1.405       .  A
C645        C646   1.408       .  A
C645        H655   1.083       .  S
C646        H656   1.080       .  S
C657        C658   1.405       .  A
C657        C662   1.407       .  A
C658        C659   1.397       .  A
C658        H671   1.083       .  S
C659        C660   1.405       .  A
C659        H672   1.083       .  S
C660        C661   1.411       .  A
C660        C663   1.495       .  S
C661        C662   1.401       .  A
C661        H673   1.079       .  S
C662        H674   1.083       .  S
C663        C664   1.350       .  D
C663        H675   1.083       .  S
C664        C665   1.494       .  S
C664        H676   1.082       .  S
C665        C666   1.405       .  A
C665        C670   1.410       .  A
C666        C667   1.399       .  A
C666        H677   1.083       .  S
C667        C668   1.406       .  A
C667        H678   1.083       .  S
C668        C669   1.406       .  A
C669        C670   1.399       .  A
C669        H679   1.083       .  S
C670        H680   1.080       .  S
C681        C682   1.406       .  A
C681        C686   1.406       .  A
C682        C683   1.399       .  A
C682        H695   1.083       .  S
C683        C684   1.404       .  A
C683        H696   1.083       .  S
C684        C685   1.409       .  A
C684        C687   1.492       .  S
C685        C686   1.399       .  A
C685        H697   1.081       .  S
C686        H698   1.083       .  S
C687        C688   1.350       .  D
C687        H699   1.084       .  S
C688        C689   1.489       .  S
C688        H700   1.083       .  S
C689        C690   1.404       .  A
C689        C694   1.408       .  A
C690        C691   1.398       .  A
C690        H701   1.083       .  S
C691        C692   1.406       .  A
C691        H702   1.083       .  S
C692        C693   1.407       .  A
C693        C694   1.400       .  A
C693        H703   1.083       .  S
C694        H704   1.081       .  S
C705        C706   1.406       .  A
C705        C710   1.407       .  A
C706        C707   1.395       .  A
C706        H719   1.083       .  S
C707        C708   1.402       .  A
C707        H720   1.084       .  S
C708        C709   1.408       .  A
C708        C711   1.483       .  S
C709        C710   1.401       .  A
C709        H721   1.082       .  S
C710        H722   1.083       .  S
C711        C712   1.346       .  D
C711        H723   1.087       .  S
C712        C713   1.484       .  S
C712        H724   1.086       .  S
C713        C714   1.404       .  A
C713        C718   1.405       .  A
C714        C715   1.403       .  A
C714        H725   1.084       .  S
C715        C716   1.406       .  A
C715        H726   1.083       .  S
C716        C717   1.404       .  A
C717        C718   1.393       .  A
C717        H727   1.083       .  S
C718        H728   1.083       .  S
C729        C730   1.406       .  A
C729        C734   1.407       .  A
C730        C731   1.394       .  A
C730        H743   1.084       .  S
C731        C732   1.402       .  A
C731        H744   1.082       .  S
C732        C733   1.408       .  A
C732        C735   1.484       .  S
C733        C734   1.402       .  A
C733        H745   1.082       .  S
C734        H746   1.081       .  S
C735        C736   1.346       .  D
C735        H747   1.087       .  S
C736        C737   1.484       .  S
C736        H748   1.085       .  S
C737        C738   1.406       .  A
C737        C742   1.404       .  A
C738        C739   1.405       .  A
C738        H749   1.083       .  S
C739        C740   1.405       .  A
C739        H750   1.084       .  S
C740        C741   1.405       .  A
C741        C742   1.390       .  A
C741        H751   1.083       .  S
C742        H752   1.084       .  S
C753        C754   1.408       .  A
C753        C758   1.406       .  A
C754        C755   1.406       .  A
C754        H767   1.083       .  S
C755        C756   1.405       .  A
C755        H768   1.083       .  S
C756        C757   1.405       .  A
C756        C759   1.489       .  S
C757        C758   1.393       .  A
C757        H769   1.083       .  S
C758        H770   1.083       .  S
C759        C760   1.348       .  D
C759        H771   1.085       .  S
C760        C761   1.489       .  S
C760        H772   1.088       .  S
C761        C762   1.402       .  A
C761        C766   1.411       .  A
C762        C763   1.391       .  A
C762        H773   1.084       .  S
C763        C764   1.404       .  A
C763        H774   1.083       .  S
C764        C765   1.408       .  A
C765        C766   1.408       .  A
C765        H775   1.083       .  S
C766        H776   1.081       .  S
C777        C778   1.404       .  A
C777        C782   1.407       .  A
C778        C779   1.391       .  A
C778        H791   1.084       .  S
C779        C780   1.400       .  A
C779        H792   1.083       .  S
C780        C781   1.410       .  A
C780        C783   1.486       .  S
C781        C782   1.408       .  A
C781        H793   1.083       .  S
C782        H794   1.083       .  S
C783        C784   1.346       .  D
C783        H795   1.086       .  S
C784        C785   1.490       .  S
C784        H796   1.086       .  S
C785        C786   1.402       .  A
C785        C790   1.408       .  A
C786        C787   1.400       .  A
C786        H797   1.083       .  S
C787        C788   1.408       .  A
C787        H798   1.083       .  S
C788        C789   1.407       .  A
C789        C790   1.400       .  A
C789        H799   1.083       .  S
C790        H800   1.083       .  S
C801        C802   1.403       .  A
C801        C806   1.404       .  A
C802        C803   1.400       .  A
C802        H815   1.083       .  S
C803        C804   1.403       .  A
C803        H816   1.083       .  S
C804        C805   1.405       .  A
C804        C807   1.478       .  S
C805        C806   1.397       .  A
C805        H817   1.083       .  S
C806        H818   1.083       .  S
C807        C808   1.343       .  D
C807        H819   1.086       .  S
C808        C809   1.479       .  S
C808        H820   1.087       .  S
C809        C810   1.403       .  A
C809        C814   1.405       .  A
C810        C811   1.400       .  A
C810        H821   1.083       .  S
C811        C812   1.404       .  A
C811        H822   1.083       .  S
C812        C813   1.404       .  A
C813        C814   1.397       .  A
C813        H823   1.083       .  S
C814        H824   1.083       .  S
C825        C826   1.407       .  A
C825        C830   1.407       .  A
C826        C827   1.405       .  A
C826        H839   1.083       .  S
C827        C828   1.406       .  A
C827        H840   1.083       .  S
C828        C829   1.405       .  A
C828        C831   1.487       .  S
C829        C830   1.394       .  A
C829        H841   1.083       .  S
C830        H842   1.083       .  S
C831        C832   1.348       .  D
C831        H843   1.085       .  S
C832        C833   1.487       .  S
C832        H844   1.087       .  S
C833        C834   1.403       .  A
C833        C838   1.407       .  A
C834        C835   1.399       .  A
C834        H845   1.084       .  S
C835        C836   1.407       .  A
C835        H846   1.083       .  S
C836        C837   1.407       .  A
C837        C838   1.401       .  A
C837        H847   1.083       .  S
C838        H848   1.082       .  S
C849        C850   1.404       .  A
C849        C854   1.406       .  A
C850        C851   1.402       .  A
C850        H863   1.083       .  S
C851        C852   1.404       .  A
C851        H864   1.083       .  S
C852        C853   1.405       .  A
C852        C855   1.484       .  S
C853        C854   1.400       .  A
C853        H865   1.083       .  S
C854        H866   1.083       .  S
C855        C856   1.346       .  D
C855        H867   1.087       .  S
C856        C857   1.484       .  S
C856        H868   1.086       .  S
C857        C858   1.405       .  A
C857        C862   1.404       .  A
C858        C859   1.405       .  A
C858        H869   1.083       .  S
C859        C860   1.407       .  A
C859        H870   1.084       .  S
C860        C861   1.404       .  A
C861        C862   1.397       .  A
C861        H871   1.083       .  S
C862        H872   1.083       .  S
C873        C874   1.406       .  A
C873        C878   1.405       .  A
C874        C875   1.398       .  A
C874        H887   1.083       .  S
C875        C876   1.404       .  A
C875        H888   1.084       .  S
C876        C877   1.411       .  A
C876        C879   1.494       .  S
C877        C878   1.401       .  A
C877        H889   1.080       .  S
C878        H890   1.083       .  S
C879        C880   1.350       .  D
C879        H891   1.083       .  S
C880        C881   1.496       .  S
C880        H892   1.084       .  S
C881        C882   1.405       .  A
C881        C886   1.412       .  A
C882        C883   1.397       .  A
C882        H893   1.084       .  S
C883        C884   1.406       .  A
C883        H894   1.083       .  S
C884        C885   1.406       .  A
C885        C886   1.402       .  A
C885        H895   1.083       .  S
C886        H896   1.080       .  S
C897        C898   1.405       .  A
C897        C902   1.404       .  A
C898        C899   1.401       .  A
C898        H911   1.083       .  S
C899        C900   1.404       .  A
C899        H912   1.083       .  S
C900        C901   1.406       .  A
C900        C903   1.484       .  S
C901        C902   1.398       .  A
C901        H913   1.083       .  S
C902        H914   1.083       .  S
C903        C904   1.346       .  D
C903        H915   1.086       .  S
C904        C905   1.484       .  S
C904        H916   1.086       .  S
C905        C906   1.404       .  A
C905        C910   1.406       .  A
C906        C907   1.402       .  A
C906        H917   1.083       .  S
C907        C908   1.404       .  A
C907        H918   1.083       .  S
C908        C909   1.403       .  A
C909        C910   1.399       .  A
C909        H919   1.083       .  S
C910        H920   1.083       .  S
C921        C922   1.402       .  A
C921        C926   1.406       .  A
C922        C923   1.389       .  A
C922        H935   1.083   1_655  S
C923        C924   1.402       .  A
C923        H936   1.084   1_655  S
C924        C925   1.412       .  A
C924        C927   1.489       .  S
C925        C926   1.409       .  A
C925        H937   1.080       .  S
C926        H938   1.084       .  S
C927        C928   1.348       .  D
C927        H939   1.086       .  S
C928        C929   1.491       .  S
C928        H940   1.084       .  S
C929        C930   1.405       .  A
C929        C934   1.406       .  A
C930        C931   1.406       .  A
C930        H941   1.083       .  S
C931        C932   1.408       .  A
C931        H942   1.083       .  S
C932        C933   1.405       .  A
C933        C934   1.393       .  A
C933        H943   1.083   1_655  S
C934        H944   1.083   1_655  S
C945        C946   1.405       .  A
C945        C950   1.407       .  A
C946        C947   1.391       .  A
C946        H959   1.084   1_545  S
C947        C948   1.400       .  A
C947        H960   1.083   1_545  S
C948        C949   1.409       .  A
C948        C951   1.485       .  S
C949        C950   1.408       .  A
C949        H961   1.083       .  S
C950        H962   1.082       .  S
C951        C952   1.347       .  D
C951        H963   1.086       .  S
C952        C953   1.491       .  S
C952        H964   1.086       .  S
C953        C954   1.404       .  A
C953        C958   1.407       .  A
C954        C955   1.403       .  A
C954        H965   1.083       .  S
C955        C956   1.408       .  A
C955        H966   1.083       .  S
C956        C957   1.406       .  A
C957        C958   1.397       .  A
C957        H967   1.083       .  S
C958        H968   1.083       .  S
C969        C970   1.406       .  A
C969        C974   1.406       .  A
C970        C971   1.401       .  A
C970        H983   1.083       .  S
C971        C972   1.405       .  A
C971        H984   1.083       .  S
C972        C973   1.410       .  A
C972        C975   1.495       .  S
C973        C974   1.400       .  A
C973        H985   1.080       .  S
C974        H986   1.083       .  S
C975        C976   1.350       .  D
C975        H987   1.084       .  S
C976        C977   1.493       .  S
C976        H988   1.084       .  S
C977        C978   1.403       .  A
C977        C982   1.410       .  A
C978        C979   1.397       .  A
C978        H989   1.083       .  S
C979        C980   1.406       .  A
C979        H990   1.083       .  S
C980        C981   1.407       .  A
C981        C982   1.404       .  A
C981        H991   1.083       .  S
C982        H992   1.081       .  S
C993        C994   1.406       .  A
C993        C998   1.405       .  A
C994        C995   1.399       .  A
C994       H1007   1.083       .  S
C995        C996   1.403       .  A
C995       H1008   1.083       .  S
C996        C997   1.406       .  A
C996        C999   1.485       .  S
C997        C998   1.394       .  A
C997       H1009   1.082       .  S
C998       H1010   1.083       .  S
C999       C1000   1.347       .  D
C999       H1011   1.085       .  S
C1000      C1001   1.483       .  S
C1000      H1012   1.086       .  S
C1001      C1002   1.402       .  A
C1001      C1006   1.408       .  A
C1002      C1003   1.393       .  A
C1002      H1013   1.084       .  S
C1003      C1004   1.405       .  A
C1003      H1014   1.084       .  S
C1004      C1005   1.405       .  A
C1005      C1006   1.402       .  A
C1005      H1015   1.083       .  S
C1006      H1016   1.082       .  S
C1017      C1018   1.404       .  A
C1017      C1022   1.403       .  A
C1018      C1019   1.402       .  A
C1018      H1031   1.084       .  S
C1019      C1020   1.405       .  A
C1019      H1032   1.083       .  S
C1020      C1021   1.407       .  A
C1020      C1023   1.485       .  S
C1021      C1022   1.397       .  A
C1021      H1033   1.083       .  S
C1022      H1034   1.083       .  S
C1023      C1024   1.345       .  D
C1023      H1035   1.086       .  S
C1024      C1025   1.484       .  S
C1024      H1036   1.086       .  S
C1025      C1026   1.404       .  A
C1025      C1030   1.407       .  A
C1026      C1027   1.400       .  A
C1026      H1037   1.083       .  S
C1027      C1028   1.402       .  A
C1027      H1038   1.083       .  S
C1028      C1029   1.404       .  A
C1029      C1030   1.399       .  A
C1029      H1039   1.083       .  S
C1030      H1040   1.083       .  S
C1041      C1042   1.405       .  A
C1041      C1046   1.407       .  A
C1042      C1043   1.396       .  A
C1042      H1055   1.083       .  S
C1043      C1044   1.403       .  A
C1043      H1056   1.084       .  S
C1044      C1045   1.407       .  A
C1044      C1047   1.484       .  S
C1045      C1046   1.399       .  A
C1045      H1057   1.081       .  S
C1046      H1058   1.083       .  S
C1047      C1048   1.346       .  D
C1047      H1059   1.087       .  S
C1048      C1049   1.483       .  S
C1048      H1060   1.086       .  S
C1049      C1050   1.404       .  A
C1049      C1054   1.405       .  A
C1050      C1051   1.402       .  A
C1050      H1061   1.084       .  S
C1051      C1052   1.406       .  A
C1051      H1062   1.083       .  S
C1052      C1053   1.405       .  A
C1053      C1054   1.393       .  A
C1053      H1063   1.083       .  S
C1054      H1064   1.082       .  S
C1065      C1066   1.406       .  A
C1065      C1070   1.407       .  A
C1066      C1067   1.398       .  A
C1066      H1079   1.083       .  S
C1067      C1068   1.403       .  A
C1067      H1080   1.084       .  S
C1068      C1069   1.410       .  A
C1068      C1071   1.491       .  S
C1069      C1070   1.402       .  A
C1069      H1081   1.081       .  S
C1070      H1082   1.083       .  S
C1071      C1072   1.349       .  D
C1071      H1083   1.084       .  S
C1072      C1073   1.493       .  S
C1072      H1084   1.085       .  S
C1073      C1074   1.404       .  A
C1073      C1078   1.410       .  A
C1074      C1075   1.399       .  A
C1074      H1085   1.084       .  S
C1075      C1076   1.406       .  A
C1075      H1086   1.083       .  S
C1076      C1077   1.406       .  A
C1077      C1078   1.401       .  A
C1077      H1087   1.083       .  S
C1078      H1088   1.080       .  S
C1089      C1090   1.406       .  A
C1089      C1094   1.405       .  A
C1090      C1091   1.401       .  A
C1090      H1103   1.083       .  S
C1091      C1092   1.403       .  A
C1091      H1104   1.085       .  S
C1092      C1093   1.406       .  A
C1092      C1095   1.482       .  S
C1093      C1094   1.394       .  A
C1093      H1105   1.082   1_565  S
C1094      H1106   1.084   1_565  S
C1095      C1096   1.345       .  D
C1095      H1107   1.087       .  S
C1096      C1097   1.482       .  S
C1096      H1108   1.088       .  S
C1097      C1098   1.401       .  A
C1097      C1102   1.407       .  A
C1098      C1099   1.395       .  A
C1098      H1109   1.084       .  S
C1099      C1100   1.406       .  A
C1099      H1110   1.083       .  S
C1100      C1101   1.406       .  A
C1101      C1102   1.400       .  A
C1101      H1111   1.082       .  S
C1102      H1112   1.082       .  S
C1113      C1114   1.408       .  A
C1113      C1118   1.407       .  A
C1114      C1115   1.406       .  A
C1114      H1127   1.083       .  S
C1115      C1116   1.405       .  A
C1115      H1128   1.083       .  S
C1116      C1117   1.405       .  A
C1116      C1119   1.488       .  S
C1117      C1118   1.392       .  A
C1117      H1129   1.083       .  S
C1118      H1130   1.083       .  S
C1119      C1120   1.348       .  D
C1119      H1131   1.083       .  S
C1120      C1121   1.489       .  S
C1120      H1132   1.087       .  S
C1121      C1122   1.403       .  A
C1121      C1126   1.411       .  A
C1122      C1123   1.392       .  A
C1122      H1133   1.084       .  S
C1123      C1124   1.403       .  A
C1123      H1134   1.083       .  S
C1124      C1125   1.406       .  A
C1125      C1126   1.406       .  A
C1125      H1135   1.083       .  S
C1126      H1136   1.080       .  S
C1137      C1138   1.407       .  A
C1137      C1142   1.407       .  A
C1138      C1139   1.398       .  A
C1138      H1151   1.083       .  S
C1139      C1140   1.403       .  A
C1139      H1152   1.083       .  S
C1140      C1141   1.407       .  A
C1140      C1143   1.486       .  S
C1141      C1142   1.401       .  A
C1141      H1153   1.082       .  S
C1142      H1154   1.083       .  S
C1143      C1144   1.347       .  D
C1143      H1155   1.087       .  S
C1144      C1145   1.485       .  S
C1144      H1156   1.086       .  S
C1145      C1146   1.405       .  A
C1145      C1150   1.405       .  A
C1146      C1147   1.404       .  A
C1146      H1157   1.083       .  S
C1147      C1148   1.406       .  A
C1147      H1158   1.083       .  S
C1148      C1149   1.406       .  A
C1149      C1150   1.394       .  A
C1149      H1159   1.083       .  S
C1150      H1160   1.083       .  S
C1161      C1162   1.406       .  A
C1161      C1166   1.406       .  A
C1162      C1163   1.405       .  A
C1162      H1175   1.083       .  S
C1163      C1164   1.406       .  A
C1163      H1176   1.083       .  S
C1164      C1165   1.405       .  A
C1164      C1167   1.488       .  S
C1165      C1166   1.394       .  A
C1165      H1177   1.083       .  S
C1166      H1178   1.083       .  S
C1167      C1168   1.348       .  D
C1167      H1179   1.085       .  S
C1168      C1169   1.487       .  S
C1168      H1180   1.086       .  S
C1169      C1170   1.403       .  A
C1169      C1174   1.408       .  A
C1170      C1171   1.396       .  A
C1170      H1181   1.083       .  S
C1171      C1172   1.406       .  A
C1171      H1182   1.083       .  S
C1172      C1173   1.408       .  A
C1173      C1174   1.403       .  A
C1173      H1183   1.082       .  S
C1174      H1184   1.081       .  S
C1185      C1186   1.407       .  A
C1185      C1190   1.406       .  A
C1186      C1187   1.402       .  A
C1186      H1199   1.083       .  S
C1187      C1188   1.403       .  A
C1187      H1200   1.084       .  S
C1188      C1189   1.405       .  A
C1188      C1191   1.484       .  S
C1189      C1190   1.396       .  A
C1189      H1201   1.083       .  S
C1190      H1202   1.083       .  S
C1191      C1192   1.345       .  D
C1191      H1203   1.086       .  S
C1192      C1193   1.482       .  S
C1192      H1204   1.087       .  S
C1193      C1194   1.401       .  A
C1193      C1198   1.407       .  A
C1194      C1195   1.395       .  A
C1194      H1205   1.084       .  S
C1195      C1196   1.407       .  A
C1195      H1206   1.083       .  S
C1196      C1197   1.406       .  A
C1197      C1198   1.401       .  A
C1197      H1207   1.083       .  S
C1198      H1208   1.082       .  S
C1209      C1210   1.406       .  A
C1209      C1214   1.407       .  A
C1210      C1211   1.399       .  A
C1210      H1223   1.083       .  S
C1211      C1212   1.404       .  A
C1211      H1224   1.083       .  S
C1212      C1213   1.409       .  A
C1212      C1215   1.492       .  S
C1213      C1214   1.401       .  A
C1213      H1225   1.081       .  S
C1214      H1226   1.083       .  S
C1215      C1216   1.349       .  D
C1215      H1227   1.084       .  S
C1216      C1217   1.490       .  S
C1216      H1228   1.084       .  S
C1217      C1218   1.403       .  A
C1217      C1222   1.409       .  A
C1218      C1219   1.397       .  A
C1218      H1229   1.083       .  S
C1219      C1220   1.406       .  A
C1219      H1230   1.083       .  S
C1220      C1221   1.407       .  A
C1221      C1222   1.402       .  A
C1221      H1231   1.083       .  S
C1222      H1232   1.081       .  S
C1233      C1234   1.407       .  A
C1233      C1238   1.407       .  A
C1234      C1235   1.399       .  A
C1234      H1247   1.083       .  S
C1235      C1236   1.403       .  A
C1235      H1248   1.083       .  S
C1236      C1237   1.408       .  A
C1236      C1239   1.489       .  S
C1237      C1238   1.401       .  A
C1237      H1249   1.081       .  S
C1238      H1250   1.083       .  S
C1239      C1240   1.349       .  D
C1239      H1251   1.084       .  S
C1240      C1241   1.490       .  S
C1240      H1252   1.085       .  S
C1241      C1242   1.404       .  A
C1241      C1246   1.408       .  A
C1242      C1243   1.398       .  A
C1242      H1253   1.083       .  S
C1243      C1244   1.406       .  A
C1243      H1254   1.083       .  S
C1244      C1245   1.406       .  A
C1245      C1246   1.399       .  A
C1245      H1255   1.083       .  S
C1246      H1256   1.081       .  S
C1257      C1258   1.407       .  A
C1257      C1262   1.406       .  A
C1258      C1259   1.401       .  A
C1258      H1271   1.083       .  S
C1259      C1260   1.405       .  A
C1259      H1272   1.083       .  S
C1260      C1261   1.411       .  A
C1260      C1263   1.499       .  S
C1261      C1262   1.402       .  A
C1261      H1273   1.080       .  S
C1262      H1274   1.083       .  S
C1263      C1264   1.352       .  D
C1263      H1275   1.084       .  S
C1264      C1265   1.495       .  S
C1264      H1276   1.083       .  S
C1265      C1266   1.404       .  A
C1265      C1270   1.410       .  A
C1266      C1267   1.399       .  A
C1266      H1277   1.083       .  S
C1267      C1268   1.406       .  A
C1267      H1278   1.083       .  S
C1268      C1269   1.409       .  A
C1269      C1270   1.406       .  A
C1269      H1279   1.083       .  S
C1270      H1280   1.081       .  S
C1281      C1282   1.407       .  A
C1281      C1286   1.407       .  A
C1282      C1283   1.397       .  A
C1282      H1295   1.083       .  S
C1283      C1284   1.402       .  A
C1283      H1296   1.084       .  S
C1284      C1285   1.409       .  A
C1284      C1287   1.489       .  S
C1285      C1286   1.404       .  A
C1285      H1297   1.082       .  S
C1286      H1298   1.083       .  S
C1287      C1288   1.348       .  D
C1287      H1299   1.087       .  S
C1288      C1289   1.490       .  S
C1288      H1300   1.086       .  S
C1289      C1290   1.406       .  A
C1289      C1294   1.406       .  A
C1290      C1291   1.405       .  A
C1290      H1301   1.084       .  S
C1291      C1292   1.406       .  A
C1291      H1302   1.083       .  S
C1292      C1293   1.406       .  A
C1293      C1294   1.397       .  A
C1293      H1303   1.084       .  S
C1294      H1304   1.082       .  S
C1305      C1306   1.407       .  A
C1305      C1310   1.407       .  A
C1306      C1307   1.399       .  A
C1306      H1319   1.083       .  S
C1307      C1308   1.404       .  A
C1307      H1320   1.083       .  S
C1308      C1309   1.409       .  A
C1308      C1311   1.491       .  S
C1309      C1310   1.400       .  A
C1309      H1321   1.081       .  S
C1310      H1322   1.083       .  S
C1311      C1312   1.349       .  D
C1311      H1323   1.083       .  S
C1312      C1313   1.493       .  S
C1312      H1324   1.084       .  S
C1313      C1314   1.404       .  A
C1313      C1318   1.410       .  A
C1314      C1315   1.397       .  A
C1314      H1325   1.083       .  S
C1315      C1316   1.405       .  A
C1315      H1326   1.083       .  S
C1316      C1317   1.406       .  A
C1317      C1318   1.401       .  A
C1317      H1327   1.083       .  S
C1318      H1328   1.080       .  S
C1329      C1330   1.406       .  A
C1329      C1334   1.408       .  A
C1330      C1331   1.396       .  A
C1330      H1343   1.083       .  S
C1331      C1332   1.403       .  A
C1331      H1344   1.084       .  S
C1332      C1333   1.407       .  A
C1332      C1335   1.486       .  S
C1333      C1334   1.402       .  A
C1333      H1345   1.082       .  S
C1334      H1346   1.083       .  S
C1335      C1336   1.346       .  D
C1335      H1347   1.087       .  S
C1336      C1337   1.485       .  S
C1336      H1348   1.085       .  S
C1337      C1338   1.403       .  A
C1337      C1342   1.405       .  A
C1338      C1339   1.403       .  A
C1338      H1349   1.083       .  S
C1339      C1340   1.407       .  A
C1339      H1350   1.083       .  S
C1340      C1341   1.406       .  A
C1341      C1342   1.395       .  A
C1341      H1351   1.083   1_455  S
C1342      H1352   1.083       .  S
C1353      C1354   1.403       .  A
C1353      C1358   1.403       .  A
C1354      C1355   1.401       .  A
C1354      H1367   1.084       .  S
C1355      C1356   1.404       .  A
C1355      H1368   1.083       .  S
C1356      C1357   1.405       .  A
C1356      C1359   1.482       .  S
C1357      C1358   1.396       .  A
C1357      H1369   1.083       .  S
C1358      H1370   1.083       .  S
C1359      C1360   1.345       .  D
C1359      H1371   1.086       .  S
C1360      C1361   1.483       .  S
C1360      H1372   1.086       .  S
C1361      C1362   1.404       .  A
C1361      C1366   1.405       .  A
C1362      C1363   1.402       .  A
C1362      H1373   1.083       .  S
C1363      C1364   1.404       .  A
C1363      H1374   1.083       .  S
C1364      C1365   1.404       .  A
C1365      C1366   1.397       .  A
C1365      H1375   1.083       .  S
C1366      H1376   1.083       .  S
C1377      C1378   1.408       .  A
C1377      C1382   1.407       .  A
C1378      C1379   1.400       .  A
C1378      H1391   1.083       .  S
C1379      C1380   1.403       .  A
C1379      H1392   1.083       .  S
C1380      C1381   1.407       .  A
C1380      C1383   1.488       .  S
C1381      C1382   1.399       .  A
C1381      H1393   1.082       .  S
C1382      H1394   1.083       .  S
C1383      C1384   1.346       .  D
C1383      H1395   1.086       .  S
C1384      C1385   1.483       .  S
C1384      H1396   1.086       .  S
C1385      C1386   1.400       .  A
C1385      C1390   1.409       .  A
C1386      C1387   1.393       .  A
C1386      H1397   1.084   1_554  S
C1387      C1388   1.406       .  A
C1387      H1398   1.083   1_554  S
C1388      C1389   1.406       .  A
C1389      C1390   1.405       .  A
C1389      H1399   1.083       .  S
C1390      H1400   1.083       .  S
C1401      C1402   1.407       .  A
C1401      C1406   1.407       .  A
C1402      C1403   1.397       .  A
C1402      H1415   1.083       .  S
C1403      C1404   1.403       .  A
C1403      H1416   1.082       .  S
C1404      C1405   1.407       .  A
C1404      C1407   1.486       .  S
C1405      C1406   1.402       .  A
C1405      H1417   1.082       .  S
C1406      H1418   1.082       .  S
C1407      C1408   1.348       .  D
C1407      H1419   1.086       .  S
C1408      C1409   1.487       .  S
C1408      H1420   1.085       .  S
C1409      C1410   1.406       .  A
C1409      C1414   1.404       .  A
C1410      C1411   1.405       .  A
C1410      H1421   1.083       .  S
C1411      C1412   1.406       .  A
C1411      H1422   1.083       .  S
C1412      C1413   1.407       .  A
C1413      C1414   1.393       .  A
C1413      H1423   1.083   1_556  S
C1414      H1424   1.083       .  S
C1425      C1426   1.406       .  A
C1425      C1430   1.406       .  A
C1426      C1427   1.399       .  A
C1426      H1439   1.083       .  S
C1427      C1428   1.404       .  A
C1427      H1440   1.083       .  S
C1428      C1429   1.410       .  A
C1428      C1431   1.493       .  S
C1429      C1430   1.400       .  A
C1429      H1441   1.080       .  S
C1430      H1442   1.083       .  S
C1431      C1432   1.350       .  D
C1431      H1443   1.085       .  S
C1432      C1433   1.489       .  S
C1432      H1444   1.083       .  S
C1433      C1434   1.404       .  A
C1433      C1438   1.408       .  A
C1434      C1435   1.399       .  A
C1434      H1445   1.083       .  S
C1435      C1436   1.406       .  A
C1435      H1446   1.083       .  S
C1436      C1437   1.407       .  A
C1437      C1438   1.400       .  A
C1437      H1447   1.083       .  S
C1438      H1448   1.081       .  S
C1449      C1450   1.406       .  A
C1449      C1454   1.407       .  A
C1450      C1451   1.396       .  A
C1450      H1463   1.083       .  S
C1451      C1452   1.402       .  A
C1451      H1464   1.083       .  S
C1452      C1453   1.407       .  A
C1452      C1455   1.483       .  S
C1453      C1454   1.400       .  A
C1453      H1465   1.082       .  S
C1454      H1466   1.083       .  S
C1455      C1456   1.346       .  D
C1455      H1467   1.087       .  S
C1456      C1457   1.483       .  S
C1456      H1468   1.086       .  S
C1457      C1458   1.404       .  A
C1457      C1462   1.404       .  A
C1458      C1459   1.403       .  A
C1458      H1469   1.083       .  S
C1459      C1460   1.407       .  A
C1459      H1470   1.083       .  S
C1460      C1461   1.406       .  A
C1461      C1462   1.393       .  A
C1461      H1471   1.083   1_565  S
C1462      H1472   1.083       .  S
C1473      C1474   1.406       .  A
C1473      C1478   1.404       .  A
C1474      C1475   1.404       .  A
C1474      H1487   1.083       .  S
C1475      C1476   1.405       .  A
C1475      H1488   1.083       .  S
C1476      C1477   1.404       .  A
C1476      C1479   1.483       .  S
C1477      C1478   1.390       .  A
C1477      H1489   1.083       .  S
C1478      H1490   1.083   1_545  S
C1479      C1480   1.347       .  D
C1479      H1491   1.085       .  S
C1480      C1481   1.483       .  S
C1480      H1492   1.087       .  S
C1481      C1482   1.403       .  A
C1481      C1486   1.407       .  A
C1482      C1483   1.396       .  A
C1482      H1493   1.083       .  S
C1483      C1484   1.406       .  A
C1483      H1494   1.083       .  S
C1484      C1485   1.406       .  A
C1485      C1486   1.399       .  A
C1485      H1495   1.083       .  S
C1486      H1496   1.081       .  S
C1497      C1498   1.408       .  A
C1497      C1502   1.407       .  A
C1498      C1499   1.399       .  A
C1498      H1511   1.083       .  S
C1499      C1500   1.402       .  A
C1499      H1512   1.083       .  S
C1500      C1501   1.406       .  A
C1500      C1503   1.484       .  S
C1501      C1502   1.399       .  A
C1501      H1513   1.083       .  S
C1502      H1514   1.083       .  S
C1503      C1504   1.345       .  D
C1503      H1515   1.086       .  S
C1504      C1505   1.480       .  S
C1504      H1516   1.086       .  S
C1505      C1506   1.400       .  A
C1505      C1510   1.407       .  A
C1506      C1507   1.393       .  A
C1506      H1517   1.083   1_655  S
C1507      C1508   1.406       .  A
C1507      H1518   1.084   1_655  S
C1508      C1509   1.405       .  A
C1509      C1510   1.403       .  A
C1509      H1519   1.083       .  S
C1510      H1520   1.083       .  S
