geometry optimzed in LAMMPS
_audit_creation_date              2020-11-30 
_audit_creation_method            'lammps2cif' 
_symmetry_space_group_name_H-M    'P1' 
_symmetry_Int_Tables_number       1 
_symmetry_cell_setting            triclinic 
loop_ 
_symmetry_equiv_pos_as_xyz 
  x,y,z 
_cell_length_a                    41.54969165 
_cell_length_b                    42.45135887347517 
_cell_length_c                    37.45084714633481 
_cell_angle_alpha                 75.4914499237007 
_cell_angle_beta                  89.25210490369172 
_cell_angle_gamma                 119.76460710048451 
loop_ 
_atom_site_label 
_atom_site_type_symbol 
_atom_site_fract_x 
_atom_site_fract_y 
_atom_site_fract_z 
_atom_site_charge 
N1          N  0.25958207  0.36060410  0.49187223    -0.03500
C2          C  0.22267304  0.33258319  0.49969949    -0.00900
C3          C  0.20826715  0.32440487  0.03658099    -0.23800
C4          C  0.23697699  0.34762070  0.05212355    -0.24000
C5          C  0.26799228  0.36947259  0.02431140    -0.01000
H6          H  0.18028294  0.30251477  0.05122385     0.12800
H7          H  0.23557241  0.34824112  0.08080045     0.12800
N8          N  0.72834164  0.78159136  0.40104411    -0.03500
C9          C  0.76621120  0.80534733  0.39176228    -0.00900
C10         C  0.77751486  0.81385751  0.35396098    -0.23800
C11         C  0.74579231  0.79502971  0.33929631    -0.24000
C12         C  0.71613042  0.77543226  0.36860079    -0.01000
H13         H  0.80571425  0.83298775  0.33841991     0.12800
H14         H  0.74448749  0.79519946  0.31040542     0.12800
O15         O  0.45248365  0.56537830  0.15809266    -0.71800
O16         O  0.50741968  0.61866177  0.22455565    -0.72000
O17         O  0.51966299  0.62850291  0.15058465    -0.71800
O18         O  0.44077617  0.55562413  0.23211950    -0.71900
O19         O  0.46730700  0.52192708  0.24209449    -0.71800
O20         O  0.54601809  0.59465336  0.16126384    -0.71800
O21         O  0.53388928  0.58490284  0.23523778    -0.71800
O22         O  0.47914832  0.53179484  0.16816354    -0.72000
V23         V  0.48061710  0.59140677  0.19148944     1.35200
V24         V  0.50608677  0.55900020  0.20145569     1.35200
C25         C  0.45648328  0.53958662  0.15161966     0.77500
C26         C  0.52949042  0.61048405  0.24176964     0.77500
C27         C  0.54617715  0.62376663  0.14178826     0.77400
C28         C  0.44095367  0.52657798  0.25142389     0.77400
N29         N  0.72636228  0.05448596  0.32481125    -0.03500
C30         C  0.76120908  0.05919347  0.32496333    -0.00900
C31         C  0.77466414  0.05909959  0.29107368    -0.23800
C32         C  0.74751150  0.05438454  0.26905823    -0.24000
C33         C  0.71833001  0.05161094  0.29027098    -0.01000
H34         H  0.80147258  0.06216121  0.28327334     0.12800
H35         H  0.74915712  0.05390397  0.24034937     0.12800
N36         N  0.27800251  0.04655038  0.33273941    -0.03500
C37         C  0.24911987  0.05278239  0.33557886    -0.00900
C38         C  0.23183900  0.04997775  0.30436665    -0.23800
C39         C  0.25048151  0.04172758  0.28129472    -0.24000
C40         C  0.27869185  0.03983181  0.29911658    -0.01000
H41         H  0.20800682  0.05336026  0.29912665     0.12800
H42         H  0.24467361  0.03840620  0.25395494     0.12800
O43         O  0.54721602  0.08018685  0.08826845    -0.71800
O44         O  0.48264139  0.07828937  0.01670749    -0.72000
O45         O  0.48124593  0.07668650  0.08924459    -0.71800
O46         O  0.54952577  0.08168994  0.01571707    -0.71900
O47         O  0.51888108  0.02010615  0.03125446    -0.71800
O48         O  0.45365763  0.01519029  0.10721853    -0.71800
O49         O  0.45211924  0.01664806  0.03504236    -0.71800
O50         O  0.51977701  0.01873319  0.10318586    -0.72000
V51         V  0.51460241  0.07805635  0.05263473     1.35200
V52         V  0.48665583  0.01889153  0.06871305     1.35200
C53         C  0.54422768  0.04972445  0.10819081     0.77500
C54         C  0.45573579  0.04713374  0.01425027     0.77500
C55         C  0.45657883  0.04503564  0.11161373     0.77400
C56         C  0.54610583  0.05159095  0.01128532     0.77400
N57         N  0.00388356  0.33996842  0.48408481    -0.03500
C58         C  0.01009250  0.31060598  0.49120168    -0.00900
C59         C  0.01072582  0.29793934  0.02876016    -0.23800
C60         C  0.00465567  0.32004598  0.04566067    -0.24000
C61         C  0.00056742  0.34555669  0.01782547    -0.01000
H62         H  0.01371738  0.27409588  0.04256530     0.12800
H63         H  0.00331441  0.31777138  0.07514913     0.12800
N64         N  0.04236512  0.80255260  0.38826312    -0.03500
C65         C  0.05547806  0.84049401  0.37800447    -0.00900
C66         C  0.06394700  0.85534164  0.33946318    -0.23800
C67         C  0.05550455  0.82579472  0.32538838    -0.24000
C68         C  0.04243182  0.79387600  0.35570562    -0.01000
H69         H  0.07338267  0.88425174  0.32323101     0.12800
H70         H  0.05824706  0.82728633  0.29614037     0.12800
O71         O  0.97515137  0.52145506  0.16032496    -0.71800
O72         O  0.98073250  0.57924379  0.22503663    -0.72000
O73         O  0.98040598  0.58865505  0.15102109    -0.71800
O74         O  0.97572883  0.51214226  0.23416101    -0.71900
O75         O  0.03658201  0.54050447  0.22429838    -0.71800
O76         O  0.04122361  0.61654711  0.14142797    -0.71800
O77         O  0.04160303  0.60760501  0.21519609    -0.71800
O78         O  0.03599839  0.54948470  0.15050956    -0.72000
V79         V  0.97918148  0.55091854  0.19245832     1.35200
V80         V  0.03765425  0.57798850  0.18306021     1.35200
C81         C  0.00456060  0.52579904  0.14408620     0.77500
C82         C  0.01206633  0.60308883  0.23143348     0.77500
C83         C  0.01173068  0.61544882  0.13168075     0.77400
C84         C  0.00544049  0.51347682  0.24364062     0.77400
C85         C  0.00701516  0.09617324  0.43562859     0.02300
C86         C  0.04261577  0.09954199  0.43683017     0.02300
C87         C  0.04660316  0.06843245  0.43652988     0.02300
C88         C  0.01446529  0.03309584  0.43772207     0.02300
C89         C  0.97865979  0.02942425  0.43781002     0.02300
C90         C  0.97521515  0.06147079  0.43505232     0.02300
C91         C  0.07732915  0.92667522  0.40587768    -0.10800
C92         C  0.04225224  0.91504641  0.42525829     0.06300
C93         C  0.01448917  0.87617375  0.43648032    -0.09600
C94         C  0.02035371  0.85018396  0.42483556    -0.11200
C95         C  0.05403369  0.86284645  0.40194580    -0.01000
C96         C  0.08311304  0.90086065  0.39429441    -0.10100
C97         C  0.03357149  0.94414951  0.42913344     0.06300
H98         H  0.98722427  0.86645072  0.45148954     0.08300
H99         H  0.99733503  0.82112184  0.43063310     0.11700
H100        H  0.10933618  0.91125480  0.37670440     0.12000
H101        H  0.09952548  0.95630137  0.39759715     0.08300
C102        C  0.01476482  0.94056602  0.46274570    -0.10800
C103        C  0.00779140  0.96907524  0.46560139    -0.10100
C104        C  0.01916884  0.00121526  0.43477665    -0.01000
C105        C  0.03652758  0.00396604  0.40090556    -0.11200
C106        C  0.04383440  0.97590542  0.39815778    -0.09600
H107        H  0.00630180  0.91624741  0.48692301     0.08300
H108        H  0.99417217  0.96646255  0.49192409     0.12000
H109        H  0.04493303  0.02825287  0.37669107     0.11700
H110        H  0.05743472  0.97896067  0.37160332     0.08300
C111        C  0.99593847  0.71123382  0.31722431    -0.10800
C112        C  0.01941670  0.69612398  0.32394584     0.06300
C113        C  0.04702150  0.70985425  0.34659677    -0.09600
C114        C  0.05251916  0.73977427  0.36021346    -0.11200
C115        C  0.03064409  0.75638801  0.35110686    -0.01000
C116        C  0.00170590  0.74124236  0.33045960    -0.10100
C117        C  0.01750767  0.66935727  0.30385069     0.06300
H118        H  0.06530447  0.69849948  0.35245557     0.08300
H119        H  0.07535547  0.75155843  0.37565854     0.11700
H120        H  0.98495482  0.75416806  0.32273978     0.12000
H121        H  0.97477723  0.70167099  0.29953021     0.08300
C122        C  0.98265436  0.64054758  0.29927978    -0.10800
C123        C  0.98091776  0.61864962  0.27621370    -0.10100
C124        C  0.01400648  0.62509599  0.25719736    -0.01000
C125        C  0.04887884  0.65305813  0.26270389    -0.11200
C126        C  0.05060973  0.67495348  0.28579492    -0.09600
H127        H  0.95669282  0.63540078  0.31306620     0.08300
H128        H  0.95361550  0.59705357  0.27283001     0.12000
H129        H  0.07485974  0.65862273  0.24850612     0.11700
H130        H  0.07786582  0.69733604  0.28827566     0.08300
C131        C  0.05364537  0.76422905  0.48593965    -0.10800
C132        C  0.02337107  0.72638368  0.99626657     0.06300
C133        C  0.99771421  0.71497543  0.47134870    -0.09600
C134        C  0.00311606  0.74031946  0.43644319    -0.11200
C135        C  0.03426642  0.77758771  0.42565354    -0.01000
C136        C  0.05901381  0.78947451  0.45107109    -0.10100
C137        C  0.01990673  0.69856320  0.03187786     0.06300
H138        H  0.97420653  0.68605939  0.97822822     0.08300
H139        H  0.98330495  0.73062153  0.41757303     0.11700
H140        H  0.08330679  0.81799294  0.44337530     0.12000
H141        H  0.07357736  0.77423301  0.50464638     0.08300
C142        C  0.05221194  0.69949570  0.04389403    -0.10800
C143        C  0.04940549  0.67289223  0.07647547    -0.10100
C144        C  0.01420516  0.64446616  0.09801681    -0.01000
C145        C  0.98179696  0.64354213  0.08629060    -0.11200
C146        C  0.98461435  0.67028210  0.05356787    -0.09600
H147        H  0.07977951  0.72031356  0.02759428     0.08300
H148        H  0.07493407  0.67431913  0.08449915     0.12000
H149        H  0.95424853  0.62199528  0.10224199     0.11700
H150        H  0.95917595  0.66890879  0.04532929     0.08300
C151        C  0.03912506  0.26071056  0.44113332    -0.10800
C152        C  0.00393656  0.22888655  0.44229717     0.06300
C153        C  0.97115547  0.22866699  0.45241289    -0.09600
C154        C  0.97347818  0.25855019  0.96384044    -0.11200
C155        C  0.00854052  0.28865670  0.46586108    -0.01000
C156        C  0.04139092  0.29015946  0.45341373    -0.10100
C157        C  0.00154151  0.19405822  0.43828799     0.06300
H158        H  0.94376838  0.20434248  0.95353909     0.08300
H159        H  0.94785961  0.25645390  0.97437026     0.11700
H160        H  0.06861891  0.31263176  0.45587294     0.12000
H161        H  0.06472738  0.26128310  0.43369775     0.08300
C162        C  0.02134599  0.19514254  0.40693846    -0.10800
C163        C  0.02160964  0.16274062  0.40520510    -0.10100
C164        C  0.00308052  0.12922215  0.43528807    -0.01000
C165        C  0.98252362  0.12785897  0.46618773    -0.11200
C166        C  0.98158470  0.15996772  0.46759018    -0.09600
H167        H  0.03689312  0.22114406  0.38407624     0.08300
H168        H  0.03710304  0.16405078  0.38086817     0.12000
H169        H  0.96815995  0.10226997  0.98966450     0.11700
H170        H  0.96652767  0.15867400  0.99225991     0.08300
C171        C  0.96703110  0.39144644  0.06971292    -0.10800
C172        C  0.99364293  0.43019431  0.05349280     0.06300
C173        C  0.01937214  0.44114860  0.02155421    -0.09600
C174        C  0.01991431  0.41364683  0.00766026    -0.11200
C175        C  0.99482372  0.37494144  0.02563155    -0.01000
C176        C  0.96771411  0.36416642  0.05597537    -0.10100
C177        C  0.99663250  0.45807321  0.07253891     0.06300
H178        H  0.03995246  0.47084116  0.00825207     0.08300
H179        H  0.04133203  0.42246792  0.98446285     0.11700
H180        H  0.94826572  0.33438723  0.07033705     0.12000
H181        H  0.94717289  0.38194254  0.09458385     0.08300
C182        C  0.96411792  0.45429850  0.08971126    -0.10800
C183        C  0.96678802  0.47675556  0.11241716    -0.10100
C184        C  0.00204417  0.50360698  0.11837449    -0.01000
C185        C  0.03464732  0.50857793  0.09996464    -0.11200
C186        C  0.03196980  0.48603211  0.07726297    -0.09600
H187        H  0.93651257  0.43336147  0.08621844     0.08300
H188        H  0.94115120  0.47254679  0.12588364     0.12000
H189        H  0.06221869  0.52923834  0.10382584     0.11700
H190        H  0.05753395  0.48931316  0.06482481     0.08300
C191        C  0.97429478  0.39431768  0.41049704    -0.10800
C192        C  0.00089049  0.40661705  0.37881593     0.06300
C193        C  0.02730613  0.39488093  0.38220779    -0.09600
C194        C  0.02777496  0.37247445  0.41650085    -0.11200
C195        C  0.00171596  0.36097138  0.44821079    -0.01000
C196        C  0.97456952  0.37159445  0.44465419    -0.10100
C197        C  0.00183074  0.43259233  0.34290975     0.06300
H198        H  0.04783177  0.40317876  0.35839035     0.08300
H199        H  0.04919039  0.36496523  0.41849623     0.11700
H200        H  0.95376759  0.36264230  0.46846989     0.12000
H201        H  0.95378432  0.40303930  0.40924731     0.08300
C202        C  0.96845011  0.42954919  0.33162193    -0.10800
C203        C  0.96954239  0.45533462  0.29911796    -0.10100
C204        C  0.00402365  0.48475006  0.27693262    -0.01000
C205        C  0.03734430  0.48727741  0.28762835    -0.11200
C206        C  0.03627762  0.46161278  0.32018704    -0.09600
H207        H  0.94135922  0.40720754  0.34793072     0.08300
H208        H  0.94334469  0.45246156  0.29159161     0.12000
H209        H  0.06440762  0.50961731  0.27121309     0.11700
H210        H  0.06261632  0.46530909  0.32810509     0.08300
C211        C  0.21625746  0.10095003  0.38284674    -0.10800
C212        C  0.18336478  0.06939467  0.40581739     0.06300
C213        C  0.17861662  0.03309538  0.41269309    -0.09600
C214        C  0.20404050  0.02805956  0.39346363    -0.11200
C215        C  0.23457400  0.05921938  0.36737283    -0.01000
C216        C  0.24155995  0.09585686  0.36365257    -0.10100
C217        C  0.15131744  0.07339843  0.41647631     0.06300
H218        H  0.15335575  0.00822633  0.42991153     0.08300
H219        H  0.19757463  0.99947529  0.39586164     0.11700
H220        H  0.26444667  0.12013865  0.34298281     0.12000
H221        H  0.22075418  0.12925883  0.37730979     0.08300
C222        C  0.12870404  0.05332264  0.45194088    -0.10800
C223        C  0.09569923  0.05357789  0.45953313    -0.10100
C224        C  0.08460259  0.07342579  0.43159536    -0.01000
C225        C  0.10746046  0.09385112  0.39648121    -0.11200
C226        C  0.14062740  0.09421705  0.38911690    -0.09600
H227        H  0.13608024  0.03672421  0.47337699     0.08300
H228        H  0.07795049  0.03697147  0.48656907     0.12000
H229        H  0.09850143  0.10771991  0.37400738     0.11700
H230        H  0.15675160  0.10893891  0.36117306     0.08300
C231        C  0.41358061  0.07339742  0.17848031    -0.10800
C232        C  0.38587499  0.03782709  0.20242354     0.06300
C233        C  0.38205133  0.00480927  0.19649204    -0.09600
C234        C  0.40496676  0.00724080  0.16701657    -0.11200
C235        C  0.43222026  0.04275491  0.14265034    -0.01000
C236        C  0.43647761  0.07583769  0.14887686    -0.10100
C237        C  0.35929422  0.03507597  0.23170278     0.06300
H238        H  0.36120523  0.97701235  0.21464513     0.08300
H239        H  0.40119851  0.98121127  0.16323783     0.11700
H240        H  0.45735216  0.10362275  0.13073171     0.12000
H241        H  0.41684839  0.09933322  0.18199242     0.08300
C242        C  0.37157827  0.06035938  0.25348690    -0.10800
C243        C  0.34557673  0.06021197  0.27789386    -0.10100
C244        C  0.30693135  0.03488213  0.28073117    -0.01000
C245        C  0.29489222  0.00846124  0.26038331    -0.11200
C246        C  0.32072671  0.00846261  0.23624703    -0.09600
H247        H  0.40118088  0.08094237  0.25082143     0.08300
H248        H  0.35550506  0.08130196  0.29278725     0.12000
H249        H  0.26519062  0.98881916  0.26193180     0.11700
H250        H  0.31027353  0.98889269  0.21965202     0.08300
C251        C  0.37130047  0.01149455  0.46394986    -0.10800
C252        C  0.37756359  0.04538840  0.43847306     0.06300
C253        C  0.40991007  0.07977346  0.43818328    -0.09600
C254        C  0.43521040  0.08029220  0.46269379    -0.11200
C255        C  0.42899333  0.04642402  0.48802710    -0.01000
C256        C  0.39671592  0.01200536  0.48837727    -0.10100
C257        C  0.35076890  0.04497694  0.41209306     0.06300
H258        H  0.41603021  0.10635097  0.41858078     0.08300
H259        H  0.45981660  0.10728328  0.96162951     0.11700
H260        H  0.39092135  0.98543183  0.50775220     0.12000
H261        H  0.34646209  0.98455410  0.46537291     0.08300
C262        C  0.33354873  0.01566277  0.39521333    -0.10800
C263        C  0.30934776  0.01596463  0.36962595    -0.10100
C264        C  0.30179826  0.04555442  0.36023654    -0.01000
C265        C  0.31846841  0.07454389  0.37739536    -0.11200
C266        C  0.34264892  0.07427539  0.40302175    -0.09600
H267        H  0.33938095  0.99285909  0.40115821     0.08300
H268        H  0.29657625  0.99313001  0.35697160     0.12000
H269        H  0.31338973  0.09784194  0.37037136     0.11700
H270        H  0.35492677  0.09702636  0.41581791     0.08300
C271        C  0.87546085  0.04344734  0.44135979    -0.10800
C272        C  0.87618287  0.06331696  0.40482945     0.06300
C273        C  0.90934342  0.08184602  0.37871003    -0.09600
C274        C  0.94097593  0.08054977  0.38876065    -0.11200
C275        C  0.94039149  0.06099537  0.42520642    -0.01000
C276        C  0.90750940  0.04266085  0.45159796    -0.10100
C277        C  0.84237532  0.06374437  0.39282660     0.06300
H278        H  0.91057960  0.09679478  0.35019002     0.08300
H279        H  0.96612433  0.09493776  0.36805312     0.11700
H280        H  0.90676163  0.02807831  0.48007088     0.12000
H281        H  0.85029756  0.02898248  0.46202619     0.08300
C282        C  0.80744370  0.02975152  0.39980707    -0.10800
C283        C  0.77803593  0.02901153  0.38129572    -0.10100
C284        C  0.78305427  0.06226858  0.35592414    -0.01000
C285        C  0.81664362  0.09675371  0.35174240    -0.11200
C286        C  0.84600258  0.09752814  0.37005730    -0.09600
H287        H  0.80395548  0.00326110  0.41697672     0.08300
H288        H  0.75282356  0.00192223  0.38394932     0.12000
H289        H  0.82144486  0.12253482  0.33155901     0.11700
H290        H  0.87246238  0.12419077  0.36448916     0.08300
C291        C  0.66442601  0.08453545  0.22811167    -0.10800
C292        C  0.63473535  0.04993912  0.22489783     0.06300
C293        C  0.62983600  0.01575844  0.24849876    -0.09600
C294        C  0.65558317  0.01622119  0.27234722    -0.11200
C295        C  0.68593272  0.05077919  0.27409307    -0.01000
C296        C  0.68964955  0.08488119  0.25257568    -0.10100
C297        C  0.61081125  0.04957687  0.19535963     0.06300
H298        H  0.60687607  0.98853912  0.24765986     0.08300
H299        H  0.65287333  0.98962057  0.28806456     0.11700
H300        H  0.71363134  0.11182410  0.25276915     0.12000
H301        H  0.66971200  0.11147643  0.21014883     0.08300
C302        C  0.60300370  0.07891504  0.18324410    -0.10800
C303        C  0.58217965  0.07942371  0.15428625    -0.10100
C304        C  0.56790058  0.05017326  0.13734310    -0.01000
C305        C  0.57518703  0.02064035  0.14953111    -0.11200
C306        C  0.59676999  0.02057570  0.17784533    -0.09600
H307        H  0.61261585  0.10138287  0.19633183     0.08300
H308        H  0.57647469  0.10226203  0.14573520     0.12000
H309        H  0.56462742  0.99784096  0.13676947     0.11700
H310        H  0.60293588  0.99804333  0.18545539     0.08300
C311        C  0.64019174  0.02443908  0.38986118    -0.10800
C312        C  0.65320941  0.05334548  0.40737755     0.06300
C313        C  0.69162080  0.08189657  0.39835530    -0.09600
C314        C  0.71603218  0.08173758  0.37212952    -0.11200
C315        C  0.70252341  0.05317591  0.35426983    -0.01000
C316        C  0.66453061  0.02431474  0.36385926    -0.10100
C317        C  0.62649300  0.05348421  0.43453980     0.06300
H318        H  0.70284135  0.10433698  0.41157779     0.08300
H319        H  0.74520673  0.10442263  0.36503604     0.11700
H320        H  0.65357025  0.00170010  0.35091156     0.12000
H321        H  0.61086286  0.00222710  0.39553461     0.08300
C322        C  0.62955048  0.08763389  0.43629532    -0.10800
C323        C  0.60343122  0.08722904  0.46092350    -0.10100
C324        C  0.57355556  0.05266932  0.48430567    -0.01000
C325        C  0.57069272  0.01865682  0.48269788    -0.11200
C326        C  0.59680573  0.01905835  0.45836178    -0.09600
H327        H  0.65171840  0.11468453  0.41813983     0.08300
H328        H  0.60655359  0.11396088  0.46155521     0.12000
H329        H  0.54835353  0.99152470  0.00058868     0.11700
H330        H  0.59385011  0.99221063  0.45852956     0.08300
C331        C  0.81509071  0.87872527  0.44150592    -0.10800
C332        C  0.85190812  0.88613914  0.43477618     0.06300
C333        C  0.85804410  0.86113418  0.42156670    -0.09600
C334        C  0.82844844  0.83126826  0.41192508    -0.11200
C335        C  0.79232120  0.82610395  0.41504601    -0.01000
C336        C  0.78538368  0.84884561  0.43157427    -0.10100
C337        C  0.88434359  0.92247242  0.43631860     0.06300
H338        H  0.88619244  0.86621833  0.41646405     0.08300
H339        H  0.83439816  0.81416872  0.39898751     0.11700
H340        H  0.75792327  0.84586385  0.43347594     0.12000
H341        H  0.80987673  0.89787920  0.45149436     0.08300
C342        C  0.91154623  0.94674920  0.40417451    -0.10800
C343        C  0.94174217  0.98182282  0.40450999    -0.10100
C344        C  0.94556062  0.99291121  0.43716093    -0.01000
C345        C  0.91868588  0.96857795  0.46946695    -0.11200
C346        C  0.88792948  0.93373516  0.46891837    -0.09600
H347        H  0.90905555  0.93874936  0.37860685     0.08300
H348        H  0.96232921  0.00026230  0.37941332     0.12000
H349        H  0.92164614  0.97655328  0.49505412     0.11700
H350        H  0.86725015  0.91537746  0.49395561     0.08300
C351        C  0.62950195  0.68440653  0.36852607    -0.10800
C352        C  0.61616157  0.69762717  0.33735531     0.06300
C353        C  0.63180764  0.73694888  0.32183167    -0.09600
C354        C  0.66239236  0.76246296  0.33481614    -0.11200
C355        C  0.67768971  0.74922307  0.36375473    -0.01000
C356        C  0.66009181  0.71012595  0.38173721    -0.10100
C357        C  0.59005896  0.67145312  0.31753706     0.06300
H358        H  0.62249637  0.74809533  0.29760669     0.08300
H359        H  0.67588173  0.79257970  0.32045329     0.11700
H360        H  0.67184324  0.69943291  0.40386293     0.12000
H361        H  0.61764531  0.65423142  0.38128177     0.08300
C362        C  0.59563568  0.64325935  0.31073093    -0.10800
C363        C  0.57547145  0.62287900  0.28665697    -0.10100
C364        C  0.54938602  0.63034324  0.26888517    -0.01000
C365        C  0.54261752  0.65732246  0.27699516    -0.11200
C366        C  0.56269455  0.67761257  0.30109741    -0.09600
H367        H  0.61693145  0.63825880  0.32251899     0.03800
H368        H  0.58108418  0.60206152  0.28114665     0.12000
H369        H  0.52229481  0.66332963  0.26413630     0.11700
H370        H  0.55753995  0.69888889  0.30610887     0.08300
C371        C  0.69324939  0.72801418  0.50306976    -0.10800
C372        C  0.65758835  0.72406788  0.50785706     0.06300
C373        C  0.64707390  0.74197505  0.47733635    -0.09600
C374        C  0.67091094  0.76206417  0.44277935    -0.11200
C375        C  0.70574951  0.76460356  0.43772575    -0.01000
C376        C  0.71701926  0.74803855  0.46839512    -0.10100
C377        C  0.63069700  0.69985187  0.04373533     0.06300
H378        H  0.61979785  0.73934086  0.47965910     0.08300
H379        H  0.66179672  0.77499000  0.41964934     0.11700
H380        H  0.74370992  0.74951499  0.46514542     0.12000
H381        H  0.70267173  0.71525760  0.02601878     0.08300
C382        C  0.62865304  0.66605517  0.06425395    -0.10800
C383        C  0.60187568  0.64199315  0.09650757    -0.10100
C384        C  0.57615385  0.65084111  0.10902956    -0.01000
C385        C  0.57857236  0.68493420  0.08907726    -0.11200
C386        C  0.60559875  0.70920942  0.05693085    -0.09600
H387        H  0.64695306  0.65745486  0.05476571     0.08300
H388        H  0.60071070  0.61587457  0.11111139     0.12000
H389        H  0.55934040  0.69270619  0.09811250     0.11700
H390        H  0.60669341  0.73527164  0.04232307     0.08300
C391        C  0.19305576  0.26101171  0.44572500    -0.10800
C392        C  0.15384224  0.24425491  0.45290684     0.06300
C393        C  0.13875573  0.26178402  0.46856934    -0.09600
C394        C  0.16213797  0.29363704  0.97980060    -0.11200
C395        C  0.20105843  0.30825463  0.47624290    -0.01000
C396        C  0.21659563  0.29277133  0.45757414    -0.10100
C397        C  0.12821226  0.20632169  0.44858408     0.06300
H398        H  0.10861393  0.24949699  0.97403127     0.08300
H399        H  0.14945529  0.30515041  0.99391117     0.11700
H400        H  0.24639266  0.30305253  0.45500047     0.12000
H401        H  0.20518707  0.24782714  0.43364826     0.08300
C402        C  0.12760255  0.19963553  0.41370211    -0.10800
C403        C  0.10073806  0.16431745  0.40986486    -0.10100
C404        C  0.07484383  0.13504942  0.44104632    -0.01000
C405        C  0.07647843  0.14141206  0.47608309    -0.11200
C406        C  0.10276897  0.17677301  0.47978976    -0.09600
H407        H  0.14674826  0.22218846  0.38926610     0.08300
H408        H  0.09902775  0.16049926  0.38232662     0.12000
H409        H  0.05636017  0.11939894  0.00028235     0.11700
H410        H  0.10287875  0.18134527  0.00698914     0.08300
C411        C  0.35820406  0.48095006  0.32973812    -0.10800
C412        C  0.35947338  0.44928945  0.35106928     0.06300
C413        C  0.38687975  0.44257636  0.33848469    -0.09600
C414        C  0.41270861  0.46718769  0.30571597    -0.11200
C415        C  0.41187911  0.49922272  0.28474952    -0.01000
C416        C  0.38412905  0.50565470  0.29699312    -0.10100
C417        C  0.33302245  0.42406430  0.38682576     0.06300
H418        H  0.38834266  0.41822341  0.35400568     0.08300
H419        H  0.43367316  0.46134743  0.29705929     0.11700
H420        H  0.38284969  0.53017050  0.28163202     0.12000
H421        H  0.33774764  0.48719838  0.33890366     0.08300
C422        C  0.34584623  0.41119555  0.41862958    -0.10800
C423        C  0.32150332  0.38932746  0.45279141    -0.10100
C424        C  0.28382508  0.37987481  0.45596671    -0.01000
C425        C  0.27067543  0.39163324  0.42397067    -0.11200
C426        C  0.29499430  0.41354235  0.38980276    -0.09600
H427        H  0.37499189  0.41893736  0.41737301     0.08300
H428        H  0.33221766  0.38014624  0.47688732     0.12000
H429        H  0.24180837  0.38485636  0.42574106     0.11700
H430        H  0.28411024  0.42253249  0.36573316     0.08300
C431        C  0.41876211  0.47028966  0.09450164    -0.10800
C432        C  0.39032675  0.47583453  0.07984994     0.06300
C433        C  0.38549765  0.50425720  0.08724690    -0.09600
C434        C  0.40760361  0.52558783  0.10981267    -0.11200
C435        C  0.43488116  0.51883602  0.12569618    -0.01000
C436        C  0.44065505  0.49141343  0.11728361    -0.10100
C437        C  0.36352852  0.44973760  0.06013227     0.06300
H438        H  0.36355241  0.50896996  0.07695002     0.08300
H439        H  0.40256947  0.54663251  0.11568108     0.11700
H440        H  0.46174669  0.48585287  0.12875749     0.12000
H441        H  0.42373113  0.44913589  0.08885232     0.08300
C442        C  0.34780676  0.46257635  0.03099002    -0.10800
C443        C  0.31847708  0.43665210  0.01664519    -0.10100
C444        C  0.30456944  0.39764423  0.03123412    -0.01000
C445        C  0.32157803  0.38502050  0.05865314    -0.11200
C446        C  0.35079905  0.41072896  0.07287750    -0.09600
H447        H  0.35727675  0.49247188  0.02019825     0.08300
H448        H  0.30520677  0.44677000  0.49585862     0.12000
H449        H  0.31071810  0.35489891  0.07061027     0.11700
H450        H  0.36165819  0.39962054  0.09562058     0.08300
N451        N  0.25958167  0.36060344  0.99187236    -0.03500
C452        C  0.22267248  0.33258296  0.99969966    -0.00900
C453        C  0.20826762  0.32440481  0.53658087    -0.23800
C454        C  0.23697721  0.34762090  0.55212351    -0.24000
C455        C  0.26799243  0.36947329  0.52431129    -0.01000
H456        H  0.18028349  0.30251444  0.55122367     0.12800
H457        H  0.23557248  0.34824116  0.58080036     0.12800
N458        N  0.72834267  0.78159066  0.90104436    -0.03500
C459        C  0.76621227  0.80534637  0.89176230    -0.00900
C460        C  0.77751571  0.81385592  0.85396106    -0.23800
C461        C  0.74579297  0.79502813  0.83929662    -0.24000
C462        C  0.71613122  0.77543121  0.86860120    -0.01000
H463        H  0.80571509  0.83298572  0.83841979     0.12800
H464        H  0.74448793  0.79519752  0.81040587     0.12800
O465        O  0.45248371  0.56537937  0.65809315    -0.71800
O466        O  0.50741975  0.61866181  0.72455674    -0.72000
O467        O  0.51966319  0.62850357  0.65058556    -0.71800
O468        O  0.44077603  0.55562448  0.73212011    -0.71900
O469        O  0.46730644  0.52192703  0.74209458    -0.71800
O470        O  0.54601805  0.59465382  0.66126451    -0.71800
O471        O  0.53388885  0.58490239  0.73523879    -0.71800
O472        O  0.47914829  0.53179582  0.66816345    -0.72000
V473        V  0.48061715  0.59140731  0.69149023     1.35200
V474        V  0.50608653  0.55900046  0.70145613     1.35200
C475        C  0.45648336  0.53958789  0.65161968     0.77500
C476        C  0.52949021  0.61048368  0.74177083     0.77500
C477        C  0.54617720  0.62376715  0.64178899     0.77400
C478        C  0.44095321  0.52657800  0.75142414     0.77400
N479        N  0.72636137  0.05448400  0.82481118    -0.03500
C480        C  0.76120810  0.05919136  0.82496318    -0.00900
C481        C  0.77466283  0.05909680  0.79107370    -0.23800
C482        C  0.74750996  0.05438143  0.76905844    -0.24000
C483        C  0.71832873  0.05160837  0.79027114    -0.01000
H484        H  0.80147107  0.06215816  0.78327341     0.12800
H485        H  0.74915532  0.05390032  0.74034976     0.12800
N486        N  0.27800241  0.04655039  0.83274018    -0.03500
C487        C  0.24912012  0.05278294  0.83557935    -0.00900
C488        C  0.23183919  0.04997823  0.80436717    -0.23800
C489        C  0.25048132  0.04172740  0.78129556    -0.24000
C490        C  0.27869156  0.03983148  0.79911750    -0.01000
H491        H  0.20800728  0.05336102  0.79912705     0.12800
H492        H  0.24467326  0.03840574  0.75395589     0.12800
O493        O  0.54721460  0.08018539  0.58826922    -0.71800
O494        O  0.48264044  0.07828865  0.51670789    -0.72000
O495        O  0.48124453  0.07668507  0.58924529    -0.71800
O496        O  0.54952478  0.08168931  0.51571758    -0.71900
O497        O  0.51888009  0.02010556  0.53125437    -0.71800
O498        O  0.45365627  0.01518889  0.60721875    -0.71800
O499        O  0.45211824  0.01664734  0.53504231    -0.71800
O500        O  0.51977584  0.01873180  0.60318589    -0.72000
V501        V  0.51460121  0.07805530  0.55263533     1.35200
V502        V  0.48665467  0.01889050  0.56871312     1.35200
C503        C  0.54422640  0.04972292  0.60819121     0.77500
C504        C  0.45573502  0.04713313  0.51425024     0.77500
C505        C  0.45657741  0.04503411  0.61161428     0.77400
C506        C  0.54610488  0.05159045  0.51128549     0.77400
N507        N  0.00388592  0.33996925  0.98408454    -0.03500
C508        C  0.01009536  0.31060718  0.99120115    -0.00900
C509        C  0.01072183  0.29793755  0.52876086    -0.23800
C510        C  0.00465174  0.32004428  0.54566121    -0.24000
C511        C  0.00056449  0.34555559  0.51782580    -0.01000
H512        H  0.01371287  0.27409375  0.54256618     0.12800
H513        H  0.00330998  0.31776945  0.57514977     0.12800
N514        N  0.04236761  0.80255385  0.88826325    -0.03500
C515        C  0.05548122  0.84049541  0.87800476    -0.00900
C516        C  0.06395195  0.85534347  0.83946352    -0.23800
C517        C  0.05550985  0.82579668  0.82538861    -0.24000
C518        C  0.04243556  0.79387759  0.85570573    -0.01000
H519        H  0.07338852  0.88425382  0.82323133     0.12800
H520        H  0.05825352  0.82728861  0.79614055     0.12800
O521        O  0.97515178  0.52145528  0.66032559    -0.71800
O522        O  0.98073337  0.57924455  0.72503689    -0.72000
O523        O  0.98040651  0.58865534  0.65102131    -0.71800
O524        O  0.97572963  0.51214305  0.73416156    -0.71900
O525        O  0.03658278  0.54050501  0.72429832    -0.71800
O526        O  0.04122413  0.61654747  0.64142801    -0.71800
O527        O  0.04160386  0.60760550  0.71519621    -0.71800
O528        O  0.03599877  0.54948512  0.65050950    -0.72000
V529        V  0.97918213  0.55091905  0.69245872     1.35200
V530        V  0.03765487  0.57798895  0.68306025     1.35200
C531        C  0.00456088  0.52579939  0.64408638     0.77500
C532        C  0.01206729  0.60308948  0.73143372     0.77500
C533        C  0.01173117  0.61544910  0.63168085     0.77400
C534        C  0.00544134  0.51347757  0.74364091     0.77400
C535        C  0.00701467  0.09617291  0.93562857     0.02300
C536        C  0.04261526  0.09954168  0.93683029     0.02300
C537        C  0.04660276  0.06843226  0.93652987     0.02300
C538        C  0.01446502  0.03309564  0.93772201     0.02300
C539        C  0.97865948  0.02942395  0.93781000     0.02300
C540        C  0.97521473  0.06147044  0.93505228     0.02300
C541        C  0.07733034  0.92667617  0.90587819    -0.10800
C542        C  0.04225302  0.91504683  0.92525836     0.06300
C543        C  0.01449019  0.87617415  0.93647980    -0.09600
C544        C  0.02035538  0.85018468  0.92483516    -0.11200
C545        C  0.05403587  0.86284762  0.90194592    -0.01000
C546        C  0.08311486  0.90086190  0.89429499    -0.10100
C547        C  0.03357172  0.94414956  0.92913345     0.06300
H548        H  0.98722498  0.86645084  0.95148861     0.08300
H549        H  0.99733699  0.82112261  0.93063236     0.11700
H550        H  0.10933839  0.91125644  0.87670531     0.12000
H551        H  0.09952633  0.95630226  0.89759802     0.08300
C552        C  0.01476574  0.94056639  0.96274600    -0.10800
C553        C  0.00779222  0.96907556  0.96560166    -0.10100
C554        C  0.01916871  0.00121511  0.93477665    -0.01000
C555        C  0.03652679  0.00396551  0.90090533    -0.11200
C556        C  0.04383374  0.97590495  0.89815758    -0.09600
H557        H  0.00630346  0.91624813  0.98692348     0.08300
H558        H  0.99417360  0.96646319  0.99192460     0.12000
H559        H  0.04493167  0.02825199  0.87669069     0.11700
H560        H  0.05743366  0.97895993  0.87160296     0.08300
C561        C  0.99594111  0.71123546  0.81722430    -0.10800
C562        C  0.01941874  0.69612492  0.82394620     0.06300
C563        C  0.04702334  0.70985467  0.84659744    -0.09600
C564        C  0.05252157  0.73977495  0.86021398    -0.11200
C565        C  0.03064726  0.75638951  0.85110687    -0.01000
C566        C  0.00170922  0.74124437  0.83045929    -0.10100
C567        C  0.01750941  0.66935811  0.80385103     0.06300
H568        H  0.06530577  0.69849928  0.85245657     0.08300
H569        H  0.07535773  0.75155866  0.87565937     0.11700
H570        H  0.98495872  0.75417074  0.82273907     0.12000
H571        H  0.97477996  0.70167297  0.79953002     0.08300
C572        C  0.98265597  0.64054873  0.79927997    -0.10800
C573        C  0.98091914  0.61865082  0.77621375    -0.10100
C574        C  0.01400772  0.62509671  0.75719763    -0.01000
C575        C  0.04888022  0.65305848  0.76270439    -0.11200
C576        C  0.05061135  0.67495395  0.78579542    -0.09600
H577        H  0.95669460  0.63540223  0.81306630     0.08300
H578        H  0.95361674  0.59705506  0.77282980     0.12000
H579        H  0.07486103  0.65862274  0.74850679     0.11700
H580        H  0.07786746  0.69733622  0.78827630     0.08300
C581        C  0.05364538  0.76422939  0.98594050    -0.10800
C582        C  0.02337105  0.72638333  0.49626635     0.06300
C583        C  0.99771480  0.71497615  0.97134834    -0.09600
C584        C  0.00311735  0.74032050  0.93644276    -0.11200
C585        C  0.03426784  0.77758870  0.92565373    -0.01000
C586        C  0.05901446  0.78947513  0.95107195    -0.10100
C587        C  0.01990699  0.69856324  0.53187783     0.06300
H588        H  0.97420586  0.68605860  0.47822911     0.08300
H589        H  0.98330682  0.73062287  0.91757211     0.11700
H590        H  0.08330757  0.81799358  0.94337662     0.12000
H591        H  0.07357693  0.77423306  0.00464758     0.08300
C592        C  0.05221221  0.69949564  0.54389378    -0.10800
C593        C  0.04940588  0.67289239  0.57647535    -0.10100
C594        C  0.01420560  0.64446643  0.59801691    -0.01000
C595        C  0.98179741  0.64354253  0.58629093    -0.11200
C596        C  0.98461469  0.67028242  0.55356821    -0.09600
H597        H  0.07977979  0.72031331  0.52759367     0.08300
H598        H  0.07493449  0.67431923  0.58449895     0.12000
H599        H  0.95424899  0.62199580  0.60224254     0.11700
H600        H  0.95917632  0.66890924  0.54532983     0.08300
C601        C  0.03912543  0.26071118  0.94113104    -0.10800
C602        C  0.00393665  0.22888658  0.94229686     0.06300
C603        C  0.97115584  0.22866666  0.95241457    -0.09600
C604        C  0.97347714  0.25855028  0.46383874    -0.11200
C605        C  0.00854201  0.28865725  0.96586080    -0.01000
C606        C  0.04139198  0.29016035  0.95341144    -0.10100
C607        C  0.00154132  0.19405810  0.93828764     0.06300
H608        H  0.94376822  0.20434326  0.45353589     0.08300
H609        H  0.94785820  0.25645420  0.47436703     0.11700
H610        H  0.06862045  0.31263327  0.95586905     0.12000
H611        H  0.06472754  0.26128402  0.93369396     0.08300
C612        C  0.02134555  0.19514224  0.90693802    -0.10800
C613        C  0.02160905  0.16274022  0.90520477    -0.10100
C614        C  0.00308001  0.12922185  0.93528783    -0.01000
C615        C  0.98252336  0.12785884  0.96618756    -0.11200
C616        C  0.98158465  0.15996769  0.96758996    -0.09600
H617        H  0.03689258  0.22114362  0.88407579     0.08300
H618        H  0.03710242  0.16405026  0.88086779     0.12000
H619        H  0.96816006  0.10227002  0.48966457     0.11700
H620        H  0.96652745  0.15867390  0.49226000     0.08300
C621        C  0.96703014  0.39144660  0.56971349    -0.10800
C622        C  0.99364176  0.43019440  0.55349267     0.06300
C623        C  0.01937032  0.44114820  0.52155369    -0.09600
C624        C  0.01991199  0.41364606  0.50766005    -0.11200
C625        C  0.99482141  0.37494076  0.52563179    -0.01000
C626        C  0.96771248  0.36416626  0.55597604    -0.10100
C627        C  0.99663171  0.45807369  0.57253844     0.06300
H628        H  0.03995050  0.47084070  0.50825100     0.08300
H629        H  0.04132940  0.42246681  0.48446227     0.11700
H630        H  0.94826401  0.33438707  0.57033815     0.12000
H631        H  0.94717247  0.38194307  0.59458477     0.08300
C632        C  0.96411732  0.45429879  0.58971151    -0.10800
C633        C  0.96678781  0.47675588  0.61241752    -0.10100
C634        C  0.00204415  0.50360742  0.61837440    -0.01000
C635        C  0.03464708  0.50857845  0.59996392    -0.11200
C636        C  0.03196917  0.48603273  0.57726197    -0.09600
H637        H  0.93651190  0.43336166  0.58621922     0.08300
H638        H  0.94115117  0.47254697  0.62588449     0.12000
H639        H  0.06221861  0.52923885  0.60382485     0.11700
H640        H  0.05753320  0.48931386  0.56482328     0.08300
C641        C  0.97429615  0.39431803  0.91049744    -0.10800
C642        C  0.00089199  0.40661807  0.87881620     0.06300
C643        C  0.02730806  0.39488245  0.88220776    -0.09600
C644        C  0.02777706  0.37247580  0.91650060    -0.11200
C645        C  0.00171787  0.36097201  0.94821064    -0.01000
C646        C  0.97457107  0.37159460  0.94465437    -0.10100
C647        C  0.00183205  0.43259351  0.84291018     0.06300
H648        H  0.04783381  0.40318080  0.85839027     0.08300
H649        H  0.04919287  0.36496700  0.91849573     0.11700
H650        H  0.95376908  0.36264196  0.96847020     0.12000
H651        H  0.95378535  0.40303928  0.90924802     0.08300
C652        C  0.96845130  0.42955014  0.83162243    -0.10800
C653        C  0.96954342  0.45533554  0.79911849    -0.10100
C654        C  0.00402460  0.48475103  0.77693303    -0.01000
C655        C  0.03734535  0.48727862  0.78762868    -0.11200
C656        C  0.03627882  0.46161415  0.82018740    -0.09600
H657        H  0.94136049  0.40720838  0.84793119     0.08300
H658        H  0.94334566  0.45246232  0.79159220     0.12000
H659        H  0.06440857  0.50961851  0.77121330     0.11700
H660        H  0.06261769  0.46531067  0.82810536     0.08300
C661        C  0.21625729  0.10095083  0.88284614    -0.10800
C662        C  0.18336493  0.06939552  0.90581730     0.06300
C663        C  0.17861736  0.03309638  0.91269383    -0.09600
C664        C  0.20404133  0.02806058  0.89346448    -0.11200
C665        C  0.23457441  0.05922027  0.86737313    -0.01000
C666        C  0.24155994  0.09585771  0.86365221    -0.10100
C667        C  0.15131736  0.07339897  0.91647608     0.06300
H668        H  0.15335686  0.00822736  0.92991286     0.08300
H669        H  0.19757583  0.99947632  0.89586307     0.11700
H670        H  0.26444638  0.12013940  0.84298205     0.12000
H671        H  0.22075363  0.12925962  0.87730862     0.08300
C672        C  0.12870437  0.05332369  0.95194088    -0.10800
C673        C  0.09569938  0.05357865  0.95953310    -0.10100
C674        C  0.08460222  0.07342577  0.93159510    -0.01000
C675        C  0.10745956  0.09385042  0.89648066    -0.11200
C676        C  0.14062667  0.09421665  0.88911633    -0.09600
H677        H  0.13608096  0.03672588  0.97337723     0.08300
H678        H  0.07795101  0.03697270  0.98656921     0.12000
H679        H  0.09850010  0.10771860  0.87400670     0.11700
H680        H  0.15675049  0.10893796  0.86117240     0.08300
C681        C  0.41357929  0.07339575  0.67848118    -0.10800
C682        C  0.38587384  0.03782545  0.70242459     0.06300
C683        C  0.38205010  0.00480762  0.69649308    -0.09600
C684        C  0.40496547  0.00723910  0.66701754    -0.11200
C685        C  0.43221885  0.04275323  0.64265110    -0.01000
C686        C  0.43647613  0.07583599  0.64887762    -0.10100
C687        C  0.35929333  0.03507455  0.73170396     0.06300
H688        H  0.36120404  0.97701069  0.71464632     0.08300
H689        H  0.40119730  0.98120961  0.66323889     0.11700
H690        H  0.45735060  0.10362110  0.63073238     0.12000
H691        H  0.41684707  0.09933152  0.68199329     0.08300
C692        C  0.37157764  0.06035824  0.75348776    -0.10800
C693        C  0.34557633  0.06021120  0.77789469    -0.10100
C694        C  0.30693088  0.03488145  0.78073219    -0.01000
C695        C  0.29489152  0.00846033  0.76038461    -0.11200
C696        C  0.32072577  0.00846124  0.73624847    -0.09600
H697        H  0.40118031  0.08094120  0.75082209     0.08300
H698        H  0.35550484  0.08130133  0.79278786     0.12000
H699        H  0.26518978  0.98881829  0.76193328     0.11700
H700        H  0.31027244  0.98889114  0.71965378     0.08300
C701        C  0.37130074  0.01149454  0.96395051    -0.10800
C702        C  0.37756302  0.04538843  0.93847450     0.06300
C703        C  0.40990901  0.07977367  0.93818518    -0.09600
C704        C  0.43520971  0.08029254  0.96269523    -0.11200
C705        C  0.42899354  0.04642436  0.98802769    -0.01000
C706        C  0.39671658  0.01200552  0.98837749    -0.10100
C707        C  0.35076827  0.04497682  0.91209448     0.06300
H708        H  0.41602858  0.10635126  0.91858328     0.08300
H709        H  0.45981762  0.10728278  0.46162779     0.11700
H710        H  0.39092270  0.98543190  0.00775178     0.12000
H711        H  0.34646278  0.98455393  0.96537321     0.08300
C712        C  0.33354839  0.01566276  0.89521457    -0.10800
C713        C  0.30934754  0.01596458  0.86962702    -0.10100
C714        C  0.30179807  0.04555441  0.86023743    -0.01000
C715        C  0.31846795  0.07454375  0.87739640    -0.11200
C716        C  0.34264812  0.07427516  0.90302315    -0.09600
H717        H  0.33938078  0.99285919  0.90115937     0.08300
H718        H  0.29657623  0.99313002  0.85697266     0.12000
H719        H  0.31338924  0.09784185  0.87037233     0.11700
H720        H  0.35492559  0.09702594  0.91581950     0.08300
C721        C  0.87546060  0.04344726  0.94135976    -0.10800
C722        C  0.87618261  0.06331695  0.90482943     0.06300
C723        C  0.90934324  0.08184615  0.87871007    -0.09600
C724        C  0.94097567  0.08054969  0.88876064    -0.11200
C725        C  0.94039110  0.06099504  0.92520635    -0.01000
C726        C  0.90750905  0.04266058  0.95159789    -0.10100
C727        C  0.84237485  0.06374384  0.89282645     0.06300
H728        H  0.91057945  0.09679500  0.85019008     0.08300
H729        H  0.96612408  0.09493767  0.86805314     0.11700
H730        H  0.90676123  0.02807790  0.98007081     0.12000
H731        H  0.85029729  0.02898237  0.96202614     0.08300
C732        C  0.80744357  0.02975067  0.89980680    -0.10800
C733        C  0.77803564  0.02901006  0.88129538    -0.10100
C734        C  0.78305347  0.06226691  0.85592384    -0.01000
C735        C  0.81664244  0.09675235  0.85174211    -0.11200
C736        C  0.84600158  0.09752735  0.87005706    -0.09600
H737        H  0.80395575  0.00326036  0.91697650     0.08300
H738        H  0.75282365  0.00192062  0.88394891     0.12000
H739        H  0.82144328  0.12253326  0.83155870     0.11700
H740        H  0.87246119  0.12419023  0.86448892     0.08300
C741        C  0.66442481  0.08453311  0.72811202    -0.10800
C742        C  0.63473414  0.04993684  0.72489808     0.06300
C743        C  0.62983480  0.01575612  0.74849881    -0.09600
C744        C  0.65558191  0.01621873  0.77234727    -0.11200
C745        C  0.68593144  0.05077667  0.77409328    -0.01000
C746        C  0.68964827  0.08487875  0.75257610    -0.10100
C747        C  0.61081006  0.04957471  0.69535992     0.06300
H748        H  0.60687480  0.98853679  0.74765974     0.08300
H749        H  0.65287204  0.98961808  0.78806455     0.11700
H750        H  0.71362995  0.11182153  0.75276972     0.12000
H751        H  0.66971090  0.11147415  0.71014921     0.08300
C752        C  0.60300234  0.07891278  0.68324483    -0.10800
C753        C  0.58217829  0.07942169  0.65428701    -0.10100
C754        C  0.56789932  0.05017148  0.63734349    -0.01000
C755        C  0.57518594  0.02063864  0.64953112    -0.11200
C756        C  0.59676895  0.02057380  0.67784527    -0.09600
H757        H  0.61261437  0.10138034  0.69633289     0.08300
H758        H  0.57647328  0.10225996  0.64573632     0.12000
H759        H  0.56462641  0.99783941  0.63676920     0.11700
H760        H  0.60293495  0.99804151  0.68545504     0.08300
C761        C  0.64019157  0.02443777  0.88986198    -0.10800
C762        C  0.65320951  0.05334483  0.90737750     0.06300
C763        C  0.69162072  0.08189627  0.89835425    -0.09600
C764        C  0.71603182  0.08173684  0.87212854    -0.11200
C765        C  0.70252281  0.05317442  0.85426974    -0.01000
C766        C  0.66453010  0.02431308  0.86385996    -0.10100
C767        C  0.62649348  0.05348392  0.93453986     0.06300
H768        H  0.70284141  0.10433728  0.91157602     0.08300
H769        H  0.74520621  0.10442202  0.86503440     0.11700
H770        H  0.65356948  0.00169799  0.85091273     0.12000
H771        H  0.61086276  0.00222560  0.89553616     0.08300
C772        C  0.62955062  0.08763370  0.93629446    -0.10800
C773        C  0.60343155  0.08722914  0.96092261    -0.10100
C774        C  0.57355641  0.05266956  0.98430562    -0.01000
C775        C  0.57069399  0.01865700  0.98269879    -0.11200
C776        C  0.59680684  0.01905822  0.95836277    -0.09600
H777        H  0.65171804  0.11468415  0.91813825     0.08300
H778        H  0.60655357  0.11396101  0.96155355     0.12000
H779        H  0.54835184  0.99152441  0.50058704     0.11700
H780        H  0.59385161  0.99221061  0.95853126     0.08300
C781        C  0.81509159  0.87872372  0.94150653    -0.10800
C782        C  0.85190916  0.88613827  0.93477606     0.06300
C783        C  0.85804554  0.86113390  0.92156587    -0.09600
C784        C  0.82844997  0.83126792  0.91192421    -0.11200
C785        C  0.79232251  0.82610306  0.91504581    -0.01000
C786        C  0.78538470  0.84884406  0.93157485    -0.10100
C787        C  0.88434425  0.92247176  0.93631842     0.06300
H788        H  0.88619398  0.86621857  0.91646265     0.08300
H789        H  0.83439987  0.81416886  0.89898609     0.11700
H790        H  0.75792408  0.84586185  0.93347710     0.12000
H791        H  0.80987731  0.89787721  0.95149554     0.08300
C792        C  0.91154677  0.94674877  0.90417429    -0.10800
C793        C  0.94174238  0.98182255  0.90450985    -0.10100
C794        C  0.94556049  0.99291089  0.93716080    -0.01000
C795        C  0.91868584  0.96857740  0.96946683    -0.11200
C796        C  0.88792982  0.93373440  0.96891822    -0.09600
H797        H  0.90905631  0.93874904  0.87860669     0.08300
H798        H  0.96232941  0.00026216  0.87941323     0.12000
H799        H  0.92164587  0.97655267  0.99505402     0.11700
H800        H  0.86725055  0.91537648  0.99395544     0.08300
C801        C  0.62950208  0.68440574  0.86852723    -0.10800
C802        C  0.61616161  0.69762643  0.83735661     0.06300
C803        C  0.63180773  0.73694815  0.82183297    -0.09600
C804        C  0.66239281  0.76246223  0.83481710    -0.11200
C805        C  0.67769032  0.74922221  0.86375545    -0.01000
C806        C  0.66009220  0.71012512  0.88173810    -0.10100
C807        C  0.59005890  0.67145235  0.81753847     0.06300
H808        H  0.62249632  0.74809461  0.79760811     0.08300
H809        H  0.67588228  0.79257887  0.82045420     0.11700
H810        H  0.67184367  0.69943196  0.90386377     0.12000
H811        H  0.61764535  0.65423065  0.88128290     0.08300
C812        C  0.59563569  0.64325873  0.81073202    -0.10800
C813        C  0.57547140  0.62287848  0.78665804    -0.10100
C814        C  0.54938577  0.63034261  0.76888655    -0.01000
C815        C  0.54261722  0.65732168  0.77699687    -0.11200
C816        C  0.56269428  0.67761166  0.80109918    -0.09600
H817        H  0.61693165  0.63825826  0.82251984     0.03800
H818        H  0.58108429  0.60206115  0.78114736     0.12000
H819        H  0.52229442  0.66332886  0.76413814     0.11700
H820        H  0.55753965  0.69888784  0.80611094     0.08300
C821        C  0.69325099  0.72801549  0.00307059    -0.10800
C822        C  0.65758956  0.72406841  0.00785746     0.06300
C823        C  0.64707484  0.74197472  0.97733633    -0.09600
C824        C  0.67091184  0.76206361  0.94277934    -0.11200
C825        C  0.70575066  0.76460342  0.93772606    -0.01000
C826        C  0.71702076  0.74803941  0.96839585    -0.10100
C827        C  0.63069593  0.69985142  0.54373502     0.06300
H828        H  0.61979847  0.73934003  0.97965874     0.08300
H829        H  0.66179743  0.77498885  0.91964910     0.11700
H830        H  0.74371162  0.74951620  0.96514647     0.12000
H831        H  0.70266981  0.71525547  0.52601764     0.08300
C832        C  0.62865117  0.66605410  0.56425295    -0.10800
C833        C  0.60187429  0.64199247  0.59650698    -0.10100
C834        C  0.57615369  0.65084141  0.60903004    -0.01000
C835        C  0.57857302  0.68493511  0.58907840    -0.11200
C836        C  0.60559897  0.70920994  0.55693158    -0.09600
H837        H  0.64695018  0.65745311  0.55476396     0.08300
H838        H  0.60070867  0.61587348  0.61111023     0.12000
H839        H  0.55934198  0.69270784  0.59811449     0.11700
H840        H  0.60669434  0.73527270  0.54232428     0.08300
C841        C  0.19305499  0.26101056  0.94572640    -0.10800
C842        C  0.15384150  0.24425424  0.95290767     0.06300
C843        C  0.13875512  0.26178375  0.96856962    -0.09600
C844        C  0.16213853  0.29363723  0.47980044    -0.11200
C845        C  0.20105782  0.30825413  0.97624338    -0.01000
C846        C  0.21659490  0.29277032  0.95757529    -0.10100
C847        C  0.12821145  0.20632110  0.94858479     0.06300
H848        H  0.10861452  0.24949691  0.47403146     0.08300
H849        H  0.14945569  0.30515020  0.49391150     0.11700
H850        H  0.24639192  0.30305127  0.95500193     0.12000
H851        H  0.20518617  0.24782559  0.93365027     0.08300
C852        C  0.12760228  0.19963489  0.91370288    -0.10800
C853        C  0.10073790  0.16431689  0.90986544    -0.10100
C854        C  0.07484317  0.13504902  0.94104668    -0.01000
C855        C  0.07647725  0.14141167  0.97608341    -0.11200
C856        C  0.10276772  0.17677252  0.97979030    -0.09600
H857        H  0.14674840  0.22218779  0.88926700     0.08300
H858        H  0.09902804  0.16049863  0.88232722     0.12000
H859        H  0.05636176  0.11939930  0.50028220     0.11700
H860        H  0.10288041  0.18134576  0.50698867     0.08300
C861        C  0.35820345  0.48094972  0.82973843    -0.10800
C862        C  0.35947242  0.44928873  0.85106910     0.06300
C863        C  0.38687831  0.44257530  0.83848395    -0.09600
C864        C  0.41270724  0.46718680  0.80571533    -0.11200
C865        C  0.41187836  0.49922241  0.78474952    -0.01000
C866        C  0.38412859  0.50565459  0.79699356    -0.10100
C867        C  0.33302161  0.42406358  0.88682562     0.06300
H868        H  0.38834085  0.41822189  0.85400457     0.08300
H869        H  0.43367152  0.46134628  0.79705822     0.11700
H870        H  0.38284965  0.53017081  0.78163300     0.12000
H871        H  0.33774738  0.48719823  0.83890437     0.08300
C872        C  0.34584539  0.41119428  0.91862918    -0.10800
C873        C  0.32150258  0.38932622  0.95279106    -0.10100
C874        C  0.28382452  0.37987410  0.95596675    -0.01000
C875        C  0.27067489  0.39163304  0.92397093    -0.11200
C876        C  0.29499359  0.41354206  0.88980296    -0.09600
H877        H  0.37499089  0.41893561  0.91737234     0.08300
H878        H  0.33221696  0.38014457  0.97688687     0.12000
H879        H  0.24180790  0.38485654  0.92574160     0.11700
H880        H  0.28410948  0.42253251  0.86573346     0.08300
C881        C  0.41876312  0.47029291  0.59449942    -0.10800
C882        C  0.39032651  0.47583661  0.57984946     0.06300
C883        C  0.38549638  0.50425804  0.58724819    -0.09600
C884        C  0.40760250  0.52558849  0.60981400    -0.11200
C885        C  0.43488122  0.51883771  0.62569592    -0.01000
C886        C  0.44065612  0.49141640  0.61728157    -0.10100
C887        C  0.36352812  0.44973955  0.56013193     0.06300
H888        H  0.36355021  0.50896992  0.57695261     0.08300
H889        H  0.40256756  0.54663223  0.61568378     0.11700
H890        H  0.46174872  0.48585665  0.62875422     0.12000
H891        H  0.42373296  0.44914011  0.58884866     0.08300
C892        C  0.34780499  0.46257777  0.53099078    -0.10800
C893        C  0.31847549  0.43665323  0.51664605    -0.10100
C894        C  0.30456929  0.39764557  0.53123396    -0.01000
C895        C  0.32157904  0.38502238  0.55865201    -0.11200
C896        C  0.35080001  0.41073117  0.57287619    -0.09600
H897        H  0.35727387  0.49247315  0.52019976     0.08300
H898        H  0.30520937  0.44676934  0.99585693     0.12000
H899        H  0.31072021  0.35490096  0.57060844     0.11700
H900        H  0.36166027  0.39962312  0.59561843     0.08300
loop_ 
_geom_bond_atom_site_label_1 
_geom_bond_atom_site_label_2 
_geom_bond_distance 
_geom_bond_site_symmetry_2 
_ccdc_geom_bond_type 
N1            C2   1.362       .  A
N1          C455   1.360       .  A
N1          C424   1.445       .  S
C2          C395   1.483       .  S
C2          C453   1.385       .  A
C3            C4   1.368       .  A
C3          C452   1.385   1_554  A
C3            H6   1.082       .  S
C4            C5   1.378       .  A
C4            H7   1.082       .  S
C5          N451   1.360   1_554  A
C5          C444   1.472       .  S
N8           C12   1.359       .  A
N8            C9   1.359       .  A
N8          C375   1.444       .  S
C9          C335   1.475       .  S
C9           C10   1.383       .  A
C10          C11   1.368       .  A
C10          H13   1.082       .  S
C11          C12   1.380       .  A
C11          H14   1.082       .  S
C12         C355   1.472       .  S
O15          V23   1.897       .  S
O15          C25   1.264       .  A
O16          V23   1.894       .  S
O16          C26   1.264       .  A
O17          V23   1.910       .  S
O17          C27   1.267       .  A
O18          V23   1.909       .  S
O18          C28   1.267       .  A
O19          V24   1.899       .  S
O19          C28   1.265       .  A
O20          V24   1.900       .  S
O20          C27   1.265       .  A
O21          V24   1.902       .  S
O21          C26   1.266       .  A
O22          V24   1.901       .  S
O22          C25   1.266       .  A
V23          V24   2.086       .  T
C25         C435   1.480       .  S
C26         C364   1.478       .  S
C27         C384   1.487       .  S
C28         C415   1.486       .  S
N29          C33   1.360       .  A
N29          C30   1.360       .  A
N29         C315   1.445       .  S
C30         C284   1.473       .  S
C30          C31   1.382       .  A
C31          C32   1.369       .  A
C31          H34   1.082       .  S
C32          C33   1.379       .  A
C32          H35   1.082       .  S
C33         C295   1.471       .  S
N36          C40   1.362       .  A
N36          C37   1.359       .  A
N36         C264   1.444       .  S
C37         C215   1.472       .  S
C37          C38   1.379       .  A
C38          C39   1.368       .  A
C38          H41   1.082       .  S
C39          C40   1.383       .  A
C39          H42   1.082       .  S
C40         C244   1.480       .  S
O43          V51   1.900       .  S
O43          C53   1.265       .  A
O44          V51   1.904       .  S
O44          C54   1.266       .  A
O45          V51   1.906       .  S
O45          C55   1.266       .  A
O46          V51   1.913       .  S
O46          C56   1.268       .  A
O47          V52   1.900       .  S
O47          C56   1.265       .  A
O48          V52   1.899       .  S
O48          C55   1.265       .  A
O49          V52   1.905       .  S
O49          C54   1.266       .  A
O50          V52   1.900       .  S
O50          C53   1.265       .  A
V51          V52   2.085       .  T
C53         C304   1.476       .  S
C54         C705   1.487   1_554  S
C55         C235   1.483       .  S
C56         C774   1.490   1_554  S
N57          C58   1.359       .  A
N57         C511   1.360       .  A
N57         C195   1.446       .  S
C58         C155   1.469       .  S
C58         C509   1.380       .  A
C59          C60   1.369       .  A
C59         C508   1.380   1_554  A
C59          H62   1.082       .  S
C60          C61   1.382       .  A
C60          H63   1.082       .  S
C61         N507   1.360   1_554  A
C61         C175   1.475   1_455  S
N64          C68   1.360       .  A
N64          C65   1.361       .  A
N64         C135   1.445       .  S
C65          C95   1.480       .  S
C65          C66   1.384       .  A
C66          C67   1.369       .  A
C66          H69   1.082       .  S
C67          C68   1.379       .  A
C67          H70   1.082       .  S
C68         C115   1.472       .  S
O71          V79   1.895       .  S
O71          C81   1.264   1_655  A
O72          V79   1.897       .  S
O72          C82   1.264   1_655  A
O73          V79   1.910       .  S
O73          C83   1.267   1_655  A
O74          V79   1.908       .  S
O74          C84   1.267   1_655  A
O75          V80   1.902       .  S
O75          C84   1.265       .  A
O76          V80   1.899       .  S
O76          C83   1.265       .  A
O77          V80   1.901       .  S
O77          C82   1.265       .  A
O78          V80   1.901       .  S
O78          C81   1.265       .  A
V79          V80   2.086   1_655  T
C81         C184   1.478       .  S
C82         C124   1.480       .  S
C83         C144   1.487       .  S
C84         C204   1.487       .  S
C85         C164   1.488       .  S
C85          C86   1.416       .  A
C85          C90   1.414   1_455  A
C86         C404   1.487       .  S
C86          C87   1.413       .  A
C87         C224   1.487       .  S
C87          C88   1.418       .  A
C88         C104   1.490       .  S
C88          C89   1.417   1_455  A
C89         C344   1.482   1_545  S
C89          C90   1.416       .  A
C90         C275   1.489       .  S
C91          C92   1.405       .  A
C91          C96   1.394       .  A
C91         H101   1.083       .  S
C92          C97   1.486       .  S
C92          C93   1.407       .  A
C93          C94   1.404       .  A
C93          H98   1.083   1_455  S
C94          C95   1.405       .  A
C94          H99   1.083   1_455  S
C95          C96   1.403       .  A
C96         H100   1.084       .  S
C97         C102   1.407       .  A
C97         C106   1.406       .  A
C102        C103   1.404       .  A
C102        H107   1.083       .  S
C103        C104   1.405   1_565  A
C103        H108   1.083   1_455  S
C104        C105   1.400       .  A
C105        C106   1.393   1_545  A
C105        H109   1.083       .  S
C106        H110   1.083       .  S
C111        C112   1.405   1_655  A
C111        C116   1.394   1_655  A
C111        H121   1.083       .  S
C112        C117   1.485       .  S
C112        C113   1.409       .  A
C113        C114   1.402       .  A
C113        H118   1.083       .  S
C114        C115   1.401       .  A
C114        H119   1.083       .  S
C115        C116   1.401       .  A
C116        H120   1.084   1_455  S
C117        C122   1.405   1_455  A
C117        C126   1.406       .  A
C122        C123   1.397       .  A
C122        H127   1.083       .  S
C123        C124   1.406   1_655  A
C123        H128   1.083       .  S
C124        C125   1.405       .  A
C125        C126   1.398       .  A
C125        H129   1.083       .  S
C126        H130   1.083       .  S
C131        C136   1.399       .  A
C131        C582   1.408       .  A
C131        H141   1.083       .  S
C132        C137   1.494   1_556  S
C132        C581   1.408       .  A
C132        C583   1.408   1_455  A
C133        C134   1.402   1_655  A
C133        C582   1.408   1_655  A
C133        H588   1.083       .  S
C134        C135   1.405       .  A
C134        H139   1.082   1_455  S
C135        C136   1.403       .  A
C136        H140   1.083       .  S
C137        C142   1.406       .  A
C137        C146   1.408   1_455  A
H138        C583   1.083       .  S
C142        C143   1.397       .  A
C142        H147   1.083       .  S
C143        C144   1.405       .  A
C143        H148   1.083       .  S
C144        C145   1.407   1_455  A
C145        C146   1.404       .  A
C145        H149   1.083       .  S
C146        H150   1.083       .  S
C151        C152   1.404       .  A
C151        C156   1.398       .  A
C151        H161   1.083       .  S
C152        C157   1.478       .  S
C152        C153   1.404   1_455  A
C153        C604   1.398       .  A
C153        H608   1.083       .  S
C154        C603   1.398       .  A
C154        C605   1.402   1_655  A
C154        H159   1.083       .  S
C155        C156   1.402       .  A
C155        C604   1.402   1_455  A
C156        H160   1.083       .  S
C157        C162   1.403       .  A
C157        C166   1.405   1_455  A
H158        C603   1.083       .  S
C162        C163   1.399       .  A
C162        H167   1.083       .  S
C163        C164   1.405       .  A
C163        H168   1.083       .  S
C164        C165   1.401   1_455  A
C165        C166   1.397       .  A
C165        H619   1.083       .  S
C166        H620   1.083       .  S
H169        C615   1.083       .  S
H170        C616   1.083       .  S
C171        C172   1.405       .  A
C171        C176   1.392       .  A
C171        H181   1.083       .  S
C172        C177   1.485       .  S
C172        C173   1.409   1_655  A
C173        C174   1.402       .  A
C173        H178   1.083       .  S
C174        C175   1.402   1_455  A
C174        H179   1.083   1_554  S
C175        C176   1.401       .  A
C176        H180   1.084       .  S
C177        C182   1.405       .  A
C177        C186   1.406   1_655  A
C182        C183   1.396       .  A
C182        H187   1.083       .  S
C183        C184   1.405   1_655  A
C183        H188   1.083       .  S
C184        C185   1.405       .  A
C185        C186   1.398       .  A
C185        H189   1.083       .  S
C186        H190   1.083       .  S
C191        C192   1.409   1_655  A
C191        C196   1.400       .  A
C191        H201   1.082       .  S
C192        C197   1.496       .  S
C192        C193   1.408       .  A
C193        C194   1.401       .  A
C193        H198   1.082       .  S
C194        C195   1.404       .  A
C194        H199   1.082       .  S
C195        C196   1.404   1_455  A
C196        H200   1.082       .  S
C197        C202   1.408   1_455  A
C197        C206   1.408       .  A
C202        C203   1.401       .  A
C202        H207   1.082       .  S
C203        C204   1.405   1_655  A
C203        H208   1.083       .  S
C204        C205   1.406       .  A
C205        C206   1.400       .  A
C205        H209   1.083       .  S
C206        H210   1.082       .  S
C211        C212   1.406       .  A
C211        C216   1.397       .  A
C211        H221   1.083       .  S
C212        C217   1.485       .  S
C212        C213   1.406       .  A
C213        C214   1.401       .  A
C213        H218   1.083       .  S
C214        C215   1.403       .  A
C214        H219   1.083   1_545  S
C215        C216   1.402       .  A
C216        H220   1.083       .  S
C217        C222   1.407       .  A
C217        C226   1.406       .  A
C222        C223   1.403       .  A
C222        H227   1.083       .  S
C223        C224   1.405       .  A
C223        H228   1.083       .  S
C224        C225   1.401       .  A
C225        C226   1.394       .  A
C225        H229   1.082       .  S
C226        H230   1.083       .  S
C231        C232   1.406       .  A
C231        C236   1.401       .  A
C231        H241   1.083       .  S
C232        C237   1.487       .  S
C232        C233   1.405       .  A
C233        C234   1.398       .  A
C233        H238   1.083   1_545  S
C234        C235   1.406       .  A
C234        H239   1.083   1_545  S
C235        C236   1.406       .  A
C236        H240   1.083       .  S
C237        C242   1.408       .  A
C237        C246   1.404       .  A
C242        C243   1.403       .  A
C242        H247   1.083       .  S
C243        C244   1.404       .  A
C243        H248   1.083       .  S
C244        C245   1.404       .  A
C245        C246   1.394       .  A
C245        H249   1.083   1_545  S
C246        H250   1.083   1_545  S
C251        C252   1.408       .  A
C251        C256   1.402       .  A
C251        H261   1.083   1_545  S
C252        C257   1.495       .  S
C252        C253   1.407       .  A
C253        C254   1.400       .  A
C253        H258   1.083       .  S
C254        C255   1.405       .  A
C254        H709   1.083       .  S
C255        C504   1.487       .  S
C255        C256   1.406       .  A
C256        H260   1.083   1_545  S
C257        C262   1.408       .  A
C257        C266   1.409       .  A
H259        C704   1.083       .  S
C262        C263   1.400       .  A
C262        H267   1.082   1_545  S
C263        C264   1.405       .  A
C263        H268   1.083   1_545  S
C264        C265   1.403       .  A
C265        C266   1.401       .  A
C265        H269   1.082       .  S
C266        H270   1.082       .  S
C271        C272   1.407       .  A
C271        C276   1.404       .  A
C271        H281   1.083       .  S
C272        C277   1.488       .  S
C272        C273   1.406       .  A
C273        C274   1.395       .  A
C273        H278   1.083       .  S
C274        C275   1.401       .  A
C274        H279   1.084       .  S
C275        C276   1.405       .  A
C276        H280   1.082       .  S
C277        C282   1.407       .  A
C277        C286   1.406       .  A
C282        C283   1.403       .  A
C282        H287   1.083       .  S
C283        C284   1.404       .  A
C283        H288   1.083       .  S
C284        C285   1.402       .  A
C285        C286   1.397       .  A
C285        H289   1.083       .  S
C286        H290   1.083       .  S
C291        C292   1.410       .  A
C291        C296   1.398       .  A
C291        H301   1.082       .  S
C292        C297   1.495       .  S
C292        C293   1.410       .  A
C293        C294   1.398       .  A
C293        H298   1.082   1_545  S
C294        C295   1.400       .  A
C294        H299   1.083   1_545  S
C295        C296   1.400       .  A
C296        H300   1.083       .  S
C297        C302   1.409       .  A
C297        C306   1.410       .  A
C302        C303   1.399       .  A
C302        H307   1.082       .  S
C303        C304   1.403       .  A
C303        H308   1.083       .  S
C304        C305   1.402       .  A
C305        C306   1.398       .  A
C305        H309   1.083   1_545  S
C306        H310   1.082   1_545  S
C311        C312   1.408       .  A
C311        C316   1.398       .  A
C311        H321   1.082       .  S
C312        C317   1.499       .  S
C312        C313   1.411       .  A
C313        C314   1.406       .  A
C313        H318   1.082       .  S
C314        C315   1.405       .  A
C314        H319   1.082       .  S
C315        C316   1.402       .  A
C316        H320   1.081       .  S
C317        C322   1.410       .  A
C317        C326   1.408       .  A
C322        C323   1.406       .  A
C322        H327   1.082       .  S
C323        C324   1.407       .  A
C323        H328   1.083       .  S
C324        C506   1.490       .  S
C324        C325   1.406       .  A
C325        C326   1.399       .  A
C325        H779   1.083   1_545  S
C326        H330   1.082   1_545  S
H329        C775   1.083   1_564  S
C331        C332   1.405       .  A
C331        C336   1.402       .  A
C331        H341   1.083       .  S
C332        C337   1.477       .  S
C332        C333   1.402       .  A
C333        C334   1.394       .  A
C333        H338   1.083       .  S
C334        C335   1.404       .  A
C334        H339   1.084       .  S
C335        C336   1.403       .  A
C336        H340   1.083       .  S
C337        C342   1.405       .  A
C337        C346   1.403       .  A
C342        C343   1.395       .  A
C342        H347   1.083       .  S
C343        C344   1.400       .  A
C343        H348   1.083   1_565  S
C344        C345   1.404       .  A
C345        C346   1.400       .  A
C345        H349   1.083       .  S
C346        H350   1.083       .  S
C351        C352   1.408       .  A
C351        C356   1.401       .  A
C351        H361   1.083       .  S
C352        C357   1.483       .  S
C352        C353   1.405       .  A
C353        C354   1.392       .  A
C353        H358   1.083       .  S
C354        C355   1.401       .  A
C354        H359   1.084       .  S
C355        C356   1.402       .  A
C356        H360   1.083       .  S
C357        C362   1.406       .  A
C357        C366   1.405       .  A
C362        C363   1.398       .  A
C362        H367   1.083       .  S
C363        C364   1.404       .  A
C363        H368   1.083       .  S
C364        C365   1.405       .  A
C365        C366   1.396       .  A
C365        H369   1.083       .  S
C366        H370   1.083       .  S
C371        C372   1.410       .  A
C371        C376   1.402       .  A
C371        H831   1.082       .  S
C372        C827   1.496       .  S
C372        C373   1.408       .  A
C373        C374   1.399       .  A
C373        H378   1.082       .  S
C374        C375   1.404       .  A
C374        H379   1.082       .  S
C375        C376   1.403       .  A
C376        H380   1.083       .  S
C377        C822   1.496       .  S
C377        C382   1.407       .  A
C377        C386   1.409       .  A
H381        C821   1.082       .  S
C382        C383   1.400       .  A
C382        H387   1.082       .  S
C383        C384   1.406       .  A
C383        H388   1.083       .  S
C384        C385   1.405       .  A
C385        C386   1.402       .  A
C385        H389   1.083       .  S
C386        H390   1.082       .  S
C391        C392   1.405       .  A
C391        C396   1.405       .  A
C391        H401   1.083       .  S
C392        C397   1.478       .  S
C392        C393   1.401       .  A
C393        C844   1.393       .  A
C393        H848   1.083       .  S
C394        C843   1.393       .  A
C394        C845   1.405       .  A
C394        H399   1.083       .  S
C395        C396   1.406       .  A
C395        C844   1.405       .  A
C396        H400   1.083       .  S
C397        C402   1.403       .  A
C397        C406   1.405       .  A
H398        C843   1.083       .  S
C402        C403   1.402       .  A
C402        H407   1.083       .  S
C403        C404   1.406       .  A
C403        H408   1.081       .  S
C404        C405   1.400       .  A
C405        C406   1.395       .  A
C405        H859   1.083       .  S
C406        H860   1.083       .  S
H409        C855   1.083   1_554  S
H410        C856   1.083   1_554  S
C411        C412   1.407       .  A
C411        C416   1.401       .  A
C411        H421   1.083       .  S
C412        C417   1.491       .  S
C412        C413   1.406       .  A
C413        C414   1.400       .  A
C413        H418   1.083       .  S
C414        C415   1.407       .  A
C414        H419   1.083       .  S
C415        C416   1.406       .  A
C416        H420   1.083       .  S
C417        C422   1.407       .  A
C417        C426   1.406       .  A
C422        C423   1.400       .  A
C422        H427   1.083       .  S
C423        C424   1.405       .  A
C423        H428   1.082       .  S
C424        C425   1.404       .  A
C425        C426   1.400       .  A
C425        H429   1.082       .  S
C426        H430   1.083       .  S
C431        C432   1.407       .  A
C431        C436   1.398       .  A
C431        H441   1.083       .  S
C432        C437   1.490       .  S
C432        C433   1.407       .  A
C433        C434   1.398       .  A
C433        H438   1.082       .  S
C434        C435   1.405       .  A
C434        H439   1.083       .  S
C435        C436   1.404       .  A
C436        H440   1.083       .  S
C437        C442   1.410       .  A
C437        C446   1.406       .  A
C442        C443   1.402       .  A
C442        H447   1.083       .  S
C443        C444   1.401       .  A
C443        H898   1.083   1_554  S
C444        C445   1.400       .  A
C445        C446   1.393       .  A
C445        H449   1.084       .  S
C446        H450   1.082       .  S
H448        C893   1.083       .  S
N451        C452   1.362       .  A
N451        C874   1.445       .  S
C452        C845   1.483       .  S
C453        C454   1.368       .  A
C453        H456   1.082       .  S
C454        C455   1.378       .  A
C454        H457   1.082       .  S
C455        C894   1.472       .  S
N458        C462   1.359       .  A
N458        C459   1.359       .  A
N458        C825   1.444       .  S
C459        C785   1.475       .  S
C459        C460   1.383       .  A
C460        C461   1.368       .  A
C460        H463   1.082       .  S
C461        C462   1.380       .  A
C461        H464   1.082       .  S
C462        C805   1.472       .  S
O465        V473   1.897       .  S
O465        C475   1.264       .  A
O466        V473   1.894       .  S
O466        C476   1.264       .  A
O467        V473   1.910       .  S
O467        C477   1.267       .  A
O468        V473   1.909       .  S
O468        C478   1.267       .  A
O469        V474   1.899       .  S
O469        C478   1.265       .  A
O470        V474   1.900       .  S
O470        C477   1.265       .  A
O471        V474   1.902       .  S
O471        C476   1.266       .  A
O472        V474   1.901       .  S
O472        C475   1.266       .  A
V473        V474   2.086       .  T
C475        C885   1.480       .  S
C476        C814   1.478       .  S
C477        C834   1.487       .  S
C478        C865   1.486       .  S
N479        C483   1.360       .  A
N479        C480   1.360       .  A
N479        C765   1.445       .  S
C480        C734   1.473       .  S
C480        C481   1.382       .  A
C481        C482   1.369       .  A
C481        H484   1.082       .  S
C482        C483   1.379       .  A
C482        H485   1.082       .  S
C483        C745   1.471       .  S
N486        C490   1.362       .  A
N486        C487   1.359       .  A
N486        C714   1.444       .  S
C487        C665   1.472       .  S
C487        C488   1.379       .  A
C488        C489   1.368       .  A
C488        H491   1.082       .  S
C489        C490   1.383       .  A
C489        H492   1.082       .  S
C490        C694   1.480       .  S
O493        V501   1.900       .  S
O493        C503   1.265       .  A
O494        V501   1.904       .  S
O494        C504   1.266       .  A
O495        V501   1.906       .  S
O495        C505   1.266       .  A
O496        V501   1.913       .  S
O496        C506   1.268       .  A
O497        V502   1.900       .  S
O497        C506   1.265       .  A
O498        V502   1.899       .  S
O498        C505   1.265       .  A
O499        V502   1.905       .  S
O499        C504   1.266       .  A
O500        V502   1.901       .  S
O500        C503   1.265       .  A
V501        V502   2.085       .  T
C503        C754   1.476       .  S
C505        C685   1.483       .  S
N507        C508   1.359       .  A
N507        C645   1.446       .  S
C508        C605   1.469       .  S
C509        C510   1.369       .  A
C509        H512   1.082       .  S
C510        C511   1.382       .  A
C510        H513   1.082       .  S
C511        C625   1.475   1_455  S
N514        C518   1.360       .  A
N514        C515   1.361       .  A
N514        C585   1.445       .  S
C515        C545   1.480       .  S
C515        C516   1.384       .  A
C516        C517   1.369       .  A
C516        H519   1.082       .  S
C517        C518   1.379       .  A
C517        H520   1.082       .  S
C518        C565   1.472       .  S
O521        V529   1.895       .  S
O521        C531   1.264   1_655  A
O522        V529   1.897       .  S
O522        C532   1.264   1_655  A
O523        V529   1.910       .  S
O523        C533   1.267   1_655  A
O524        V529   1.908       .  S
O524        C534   1.267   1_655  A
O525        V530   1.902       .  S
O525        C534   1.265       .  A
O526        V530   1.899       .  S
O526        C533   1.265       .  A
O527        V530   1.901       .  S
O527        C532   1.265       .  A
O528        V530   1.901       .  S
O528        C531   1.265       .  A
V529        V530   2.086   1_655  T
C531        C634   1.478       .  S
C532        C574   1.480       .  S
C533        C594   1.487       .  S
C534        C654   1.487       .  S
C535        C614   1.488       .  S
C535        C536   1.416       .  A
C535        C540   1.414   1_455  A
C536        C854   1.487       .  S
C536        C537   1.413       .  A
C537        C674   1.487       .  S
C537        C538   1.418       .  A
C538        C554   1.490       .  S
C538        C539   1.417   1_455  A
C539        C794   1.482   1_545  S
C539        C540   1.416       .  A
C540        C725   1.489       .  S
C541        C542   1.405       .  A
C541        C546   1.394       .  A
C541        H551   1.083       .  S
C542        C547   1.486       .  S
C542        C543   1.407       .  A
C543        C544   1.404       .  A
C543        H548   1.083   1_455  S
C544        C545   1.405       .  A
C544        H549   1.083   1_455  S
C545        C546   1.403       .  A
C546        H550   1.084       .  S
C547        C552   1.407       .  A
C547        C556   1.406       .  A
C552        C553   1.404       .  A
C552        H557   1.083       .  S
C553        C554   1.405   1_565  A
C553        H558   1.083   1_455  S
C554        C555   1.400       .  A
C555        C556   1.393   1_545  A
C555        H559   1.083       .  S
C556        H560   1.083       .  S
C561        C562   1.405   1_655  A
C561        C566   1.394   1_655  A
C561        H571   1.083       .  S
C562        C567   1.485       .  S
C562        C563   1.409       .  A
C563        C564   1.402       .  A
C563        H568   1.083       .  S
C564        C565   1.401       .  A
C564        H569   1.083       .  S
C565        C566   1.401       .  A
C566        H570   1.084   1_455  S
C567        C572   1.405   1_455  A
C567        C576   1.406       .  A
C572        C573   1.397       .  A
C572        H577   1.083       .  S
C573        C574   1.406   1_655  A
C573        H578   1.083       .  S
C574        C575   1.405       .  A
C575        C576   1.398       .  A
C575        H579   1.083       .  S
C576        H580   1.083       .  S
C581        C586   1.399       .  A
C581        H591   1.083   1_556  S
C582        C587   1.494       .  S
C583        C584   1.402   1_655  A
C584        C585   1.405       .  A
C584        H589   1.082   1_455  S
C585        C586   1.403       .  A
C586        H590   1.083       .  S
C587        C592   1.406       .  A
C587        C596   1.408   1_455  A
C592        C593   1.397       .  A
C592        H597   1.083       .  S
C593        C594   1.405       .  A
C593        H598   1.083       .  S
C594        C595   1.407   1_455  A
C595        C596   1.404       .  A
C595        H599   1.083       .  S
C596        H600   1.083       .  S
C601        C602   1.404       .  A
C601        C606   1.398       .  A
C601        H611   1.083       .  S
C602        C607   1.478       .  S
C602        C603   1.404   1_455  A
C604        H609   1.083       .  S
C605        C606   1.402       .  A
C606        H610   1.083       .  S
C607        C612   1.403       .  A
C607        C616   1.405   1_455  A
C612        C613   1.399       .  A
C612        H617   1.083       .  S
C613        C614   1.405       .  A
C613        H618   1.083       .  S
C614        C615   1.401   1_455  A
C615        C616   1.397       .  A
C621        C622   1.405       .  A
C621        C626   1.392       .  A
C621        H631   1.083       .  S
C622        C627   1.485       .  S
C622        C623   1.409   1_655  A
C623        C624   1.402       .  A
C623        H628   1.083       .  S
C624        C625   1.402   1_455  A
C624        H629   1.083       .  S
C625        C626   1.401       .  A
C626        H630   1.084       .  S
C627        C632   1.405       .  A
C627        C636   1.406   1_655  A
C632        C633   1.396       .  A
C632        H637   1.083       .  S
C633        C634   1.405   1_655  A
C633        H638   1.083       .  S
C634        C635   1.405       .  A
C635        C636   1.398       .  A
C635        H639   1.083       .  S
C636        H640   1.083       .  S
C641        C642   1.409   1_655  A
C641        C646   1.400       .  A
C641        H651   1.082       .  S
C642        C647   1.496       .  S
C642        C643   1.408       .  A
C643        C644   1.401       .  A
C643        H648   1.082       .  S
C644        C645   1.404       .  A
C644        H649   1.082       .  S
C645        C646   1.404   1_455  A
C646        H650   1.082       .  S
C647        C652   1.408   1_455  A
C647        C656   1.408       .  A
C652        C653   1.401       .  A
C652        H657   1.082       .  S
C653        C654   1.405   1_655  A
C653        H658   1.083       .  S
C654        C655   1.406       .  A
C655        C656   1.400       .  A
C655        H659   1.083       .  S
C656        H660   1.082       .  S
C661        C662   1.406       .  A
C661        C666   1.397       .  A
C661        H671   1.083       .  S
C662        C667   1.485       .  S
C662        C663   1.406       .  A
C663        C664   1.401       .  A
C663        H668   1.083       .  S
C664        C665   1.403       .  A
C664        H669   1.083   1_545  S
C665        C666   1.402       .  A
C666        H670   1.083       .  S
C667        C672   1.407       .  A
C667        C676   1.406       .  A
C672        C673   1.403       .  A
C672        H677   1.083       .  S
C673        C674   1.405       .  A
C673        H678   1.083       .  S
C674        C675   1.401       .  A
C675        C676   1.394       .  A
C675        H679   1.082       .  S
C676        H680   1.083       .  S
C681        C682   1.406       .  A
C681        C686   1.401       .  A
C681        H691   1.083       .  S
C682        C687   1.487       .  S
C682        C683   1.405       .  A
C683        C684   1.398       .  A
C683        H688   1.083   1_545  S
C684        C685   1.406       .  A
C684        H689   1.083   1_545  S
C685        C686   1.406       .  A
C686        H690   1.083       .  S
C687        C692   1.408       .  A
C687        C696   1.404       .  A
C692        C693   1.403       .  A
C692        H697   1.083       .  S
C693        C694   1.404       .  A
C693        H698   1.083       .  S
C694        C695   1.404       .  A
C695        C696   1.394       .  A
C695        H699   1.083   1_545  S
C696        H700   1.083   1_545  S
C701        C702   1.408       .  A
C701        C706   1.402       .  A
C701        H711   1.083   1_545  S
C702        C707   1.495       .  S
C702        C703   1.407       .  A
C703        C704   1.400       .  A
C703        H708   1.083       .  S
C704        C705   1.405       .  A
C705        C706   1.406       .  A
C706        H710   1.083   1_546  S
C707        C712   1.408       .  A
C707        C716   1.409       .  A
C712        C713   1.400       .  A
C712        H717   1.082   1_545  S
C713        C714   1.405       .  A
C713        H718   1.083   1_545  S
C714        C715   1.403       .  A
C715        C716   1.401       .  A
C715        H719   1.082       .  S
C716        H720   1.082       .  S
C721        C722   1.407       .  A
C721        C726   1.404       .  A
C721        H731   1.083       .  S
C722        C727   1.488       .  S
C722        C723   1.406       .  A
C723        C724   1.395       .  A
C723        H728   1.083       .  S
C724        C725   1.401       .  A
C724        H729   1.084       .  S
C725        C726   1.405       .  A
C726        H730   1.082       .  S
C727        C732   1.407       .  A
C727        C736   1.406       .  A
C732        C733   1.403       .  A
C732        H737   1.083       .  S
C733        C734   1.404       .  A
C733        H738   1.083       .  S
C734        C735   1.402       .  A
C735        C736   1.397       .  A
C735        H739   1.083       .  S
C736        H740   1.083       .  S
C741        C742   1.410       .  A
C741        C746   1.398       .  A
C741        H751   1.082       .  S
C742        C747   1.495       .  S
C742        C743   1.410       .  A
C743        C744   1.398       .  A
C743        H748   1.082   1_545  S
C744        C745   1.400       .  A
C744        H749   1.083   1_545  S
C745        C746   1.400       .  A
C746        H750   1.083       .  S
C747        C752   1.409       .  A
C747        C756   1.410       .  A
C752        C753   1.399       .  A
C752        H757   1.082       .  S
C753        C754   1.403       .  A
C753        H758   1.083       .  S
C754        C755   1.402       .  A
C755        C756   1.398       .  A
C755        H759   1.083   1_545  S
C756        H760   1.082   1_545  S
C761        C762   1.408       .  A
C761        C766   1.398       .  A
C761        H771   1.082       .  S
C762        C767   1.499       .  S
C762        C763   1.411       .  A
C763        C764   1.406       .  A
C763        H768   1.082       .  S
C764        C765   1.405       .  A
C764        H769   1.082       .  S
C765        C766   1.402       .  A
C766        H770   1.081       .  S
C767        C772   1.410       .  A
C767        C776   1.408       .  A
C772        C773   1.406       .  A
C772        H777   1.082       .  S
C773        C774   1.407       .  A
C773        H778   1.083       .  S
C774        C775   1.406       .  A
C775        C776   1.399       .  A
C776        H780   1.082   1_545  S
C781        C782   1.405       .  A
C781        C786   1.402       .  A
C781        H791   1.083       .  S
C782        C787   1.477       .  S
C782        C783   1.402       .  A
C783        C784   1.394       .  A
C783        H788   1.083       .  S
C784        C785   1.404       .  A
C784        H789   1.084       .  S
C785        C786   1.403       .  A
C786        H790   1.083       .  S
C787        C792   1.405       .  A
C787        C796   1.403       .  A
C792        C793   1.395       .  A
C792        H797   1.083       .  S
C793        C794   1.400       .  A
C793        H798   1.083   1_565  S
C794        C795   1.404       .  A
C795        C796   1.400       .  A
C795        H799   1.083       .  S
C796        H800   1.083       .  S
C801        C802   1.408       .  A
C801        C806   1.401       .  A
C801        H811   1.083       .  S
C802        C807   1.483       .  S
C802        C803   1.405       .  A
C803        C804   1.392       .  A
C803        H808   1.083       .  S
C804        C805   1.401       .  A
C804        H809   1.084       .  S
C805        C806   1.402       .  A
C806        H810   1.083       .  S
C807        C812   1.406       .  A
C807        C816   1.405       .  A
C812        C813   1.398       .  A
C812        H817   1.083       .  S
C813        C814   1.404       .  A
C813        H818   1.083       .  S
C814        C815   1.405       .  A
C815        C816   1.396       .  A
C815        H819   1.083       .  S
C816        H820   1.083       .  S
C821        C822   1.410       .  A
C821        C826   1.402   1_554  A
C822        C823   1.408   1_554  A
C823        C824   1.399       .  A
C823        H828   1.082       .  S
C824        C825   1.404       .  A
C824        H829   1.082       .  S
C825        C826   1.403       .  A
C826        H830   1.083       .  S
C827        C832   1.407       .  A
C827        C836   1.409       .  A
C832        C833   1.400       .  A
C832        H837   1.082       .  S
C833        C834   1.406       .  A
C833        H838   1.083       .  S
C834        C835   1.405       .  A
C835        C836   1.402       .  A
C835        H839   1.083       .  S
C836        H840   1.082       .  S
C841        C842   1.405       .  A
C841        C846   1.405       .  A
C841        H851   1.083       .  S
C842        C847   1.478       .  S
C842        C843   1.401       .  A
C844        H849   1.083       .  S
C845        C846   1.406       .  A
C846        H850   1.083       .  S
C847        C852   1.403       .  A
C847        C856   1.405       .  A
C852        C853   1.402       .  A
C852        H857   1.083       .  S
C853        C854   1.406       .  A
C853        H858   1.081       .  S
C854        C855   1.400       .  A
C855        C856   1.395       .  A
C861        C862   1.407       .  A
C861        C866   1.401       .  A
C861        H871   1.083       .  S
C862        C867   1.491       .  S
C862        C863   1.406       .  A
C863        C864   1.400       .  A
C863        H868   1.083       .  S
C864        C865   1.407       .  A
C864        H869   1.083       .  S
C865        C866   1.406       .  A
C866        H870   1.083       .  S
C867        C872   1.407       .  A
C867        C876   1.406       .  A
C872        C873   1.400       .  A
C872        H877   1.083       .  S
C873        C874   1.405       .  A
C873        H878   1.082       .  S
C874        C875   1.404       .  A
C875        C876   1.400       .  A
C875        H879   1.082       .  S
C876        H880   1.083       .  S
C881        C882   1.407       .  A
C881        C886   1.398       .  A
C881        H891   1.083       .  S
C882        C887   1.490       .  S
C882        C883   1.407       .  A
C883        C884   1.398       .  A
C883        H888   1.082       .  S
C884        C885   1.405       .  A
C884        H889   1.083       .  S
C885        C886   1.404       .  A
C886        H890   1.083       .  S
C887        C892   1.410       .  A
C887        C896   1.406       .  A
C892        C893   1.402       .  A
C892        H897   1.083       .  S
C893        C894   1.401       .  A
C894        C895   1.400       .  A
C895        C896   1.393       .  A
C895        H899   1.084       .  S
C896        H900   1.082       .  S
