geometry optimzed in LAMMPS
_audit_creation_date              2020-11-30 
_audit_creation_method            'lammps2cif' 
_symmetry_space_group_name_H-M    'P1' 
_symmetry_Int_Tables_number       1 
_symmetry_cell_setting            triclinic 
loop_ 
_symmetry_equiv_pos_as_xyz 
  x,y,z 
_cell_length_a                    47.6449379 
_cell_length_b                    47.315985190071615 
_cell_length_c                    44.07113450126474 
_cell_angle_alpha                 91.7789096972348 
_cell_angle_beta                  90.72053409500214 
_cell_angle_gamma                 120.92569352085866 
loop_ 
_atom_site_label 
_atom_site_type_symbol 
_atom_site_fract_x 
_atom_site_fract_y 
_atom_site_fract_z 
_atom_site_charge 
C1          C  0.12091148  0.10969557  0.12848040     0.04400
C2          C  0.11628982  0.13601452  0.13588390    -0.11800
C3          C  0.13625239  0.15987284  0.15815937     0.01900
C4          C  0.16121464  0.15766443  0.17289737    -0.10300
C5          C  0.16602344  0.13134801  0.16594048     0.04400
C6          C  0.14558178  0.10711677  0.14373288    -0.09700
H7          H  0.09708866  0.13785730  0.12436094     0.10000
H8          H  0.17730555  0.17678529  0.18952459     0.07500
H9          H  0.14919521  0.08680353  0.13798796     0.07300
C10         C  0.31726172  0.14313612  0.26745818     0.46700
H11         H  0.32171496  0.14614539  0.29206036    -0.02300
C12         C  0.30683031  0.13509014  0.20921344     0.46700
H13         H  0.30040299  0.12934535  0.18503285    -0.02300
C14         C  0.28577155  0.14250084  0.25799526    -0.16000
C15         C  0.34435245  0.17214043  0.25043363    -0.15800
C16         C  0.31554167  0.11148067  0.25347519    -0.16200
C17         C  0.27967947  0.13737575  0.22677165    -0.16100
C18         C  0.33997788  0.16703071  0.21872651    -0.15700
C19         C  0.30987353  0.10722722  0.22253033    -0.16000
C20         C  0.14837169  0.30984630  0.25710228     0.46700
H21         H  0.15092869  0.31046214  0.28173952    -0.02300
C22         C  0.14709545  0.30627828  0.19864208     0.46700
H23         H  0.14717048  0.30459549  0.17388639    -0.02300
C24         C  0.18028581  0.33639630  0.24400768    -0.16000
C25         C  0.14264767  0.27628519  0.24376227    -0.15800
C26         C  0.12151297  0.31588772  0.24271328    -0.16200
C27         C  0.17957986  0.33500490  0.21290503    -0.16100
C28         C  0.14135207  0.27447480  0.21222037    -0.15700
C29         C  0.11943721  0.31058420  0.21099832    -0.16000
C30         C  0.47849132  0.31301943  0.12242981     0.04400
C31         C  0.00642597  0.31095979  0.12934339    -0.11800
C32         C  0.00282896  0.28153160  0.14067478     0.01900
C33         C  0.47045556  0.25477136  0.14294142    -0.10300
C34         C  0.44430336  0.26023097  0.14394150     0.04400
C35         C  0.44788591  0.28892942  0.13237166    -0.09700
H36         H  0.03028670  0.33220437  0.12576811     0.10000
H37         H  0.46544652  0.23038125  0.14718207     0.07500
H38         H  0.42709193  0.29228724  0.13055118     0.07300
C39         C  0.33926376  0.47221018  0.12896550     0.04400
C40         C  0.34020151  0.99812392  0.14464444    -0.11800
C41         C  0.31217066  0.99618009  0.15794799     0.01900
C42         C  0.28524407  0.46758776  0.15707956    -0.10300
C43         C  0.28407230  0.43860326  0.14720790     0.04400
C44         C  0.31079642  0.44122209  0.13178935    -0.09700
H45         H  0.36337472  0.02113649  0.14523697     0.10000
H46         H  0.26364206  0.46595783  0.16637164     0.07500
H47         H  0.30931829  0.41935452  0.12157211     0.07300
C48         C  0.98993028  0.33394109  0.34527567     0.04400
C49         C  0.45968914  0.30726279  0.33500723    -0.11800
C50         C  0.45833381  0.28564855  0.31169842     0.01900
C51         C  0.98737934  0.29087824  0.29873302    -0.10300
C52         C  0.01767577  0.31776455  0.30876633     0.04400
C53         C  0.01884448  0.33907763  0.33218823    -0.09700
H54         H  0.43725140  0.30365270  0.34447505     0.10000
H55         H  0.48627730  0.27423591  0.28091946     0.07500
H56         H  0.04218123  0.36035204  0.33955423     0.07300
C57         C  0.34227044  0.47848533  0.34107721     0.04400
C58         C  0.34554999  0.00763162  0.33052365    -0.11800
C59         C  0.32370477  0.00738882  0.30926906     0.01900
C60         C  0.29696604  0.47800338  0.30019285    -0.10300
C61         C  0.29084437  0.44757253  0.31070219     0.04400
C62         C  0.31363122  0.44836310  0.33216361    -0.09700
H63         H  0.36649853  0.03095033  0.33862836     0.10000
H64         H  0.28011236  0.47897379  0.28433458     0.07500
H65         H  0.30905282  0.42607855  0.34262464     0.07300
C66         C  0.13549264  0.13183576  0.34558529     0.04400
C67         C  0.16440265  0.13336796  0.33605506    -0.11800
C68         C  0.18913009  0.16149751  0.32193700     0.01900
C69         C  0.18364412  0.18780409  0.31871314    -0.10300
C70         C  0.15215976  0.18315851  0.32128237     0.04400
C71         C  0.12844533  0.15570077  0.33617991    -0.09700
H72         H  0.16727400  0.11250272  0.33983805     0.10000
H73         H  0.20276968  0.21137263  0.31146716     0.07500
H74         H  0.10460077  0.15254263  0.33997603     0.07300
O75         O  0.05446135  0.45928978  0.50727929    -0.79700
O76         O  0.45750678  0.47903129  0.42587440    -0.64300
O77         O  0.02097437  0.49032583  0.48604027    -1.10900
C78         C  0.42728266  0.41368184  0.53875925     1.07200
O79         O  0.42543463  0.48253251  0.45933623    -0.77600
O80         O  0.44378231  0.49259113  0.51786660    -0.65100
Ni81       Ni  0.05712338  0.48594848  0.47402992     1.34900
C82         C  0.47019810  0.00583475  0.53562570     0.86000
O83         O  0.02191310  0.02179574  0.43176910    -0.78100
O84         O  0.06557487  0.01684235  0.44063273    -0.88400
C85         C  0.43292103  0.48135992  0.43201592     0.85500
O86         O  0.03266478  0.44643076  0.44944516    -0.66600
O87         O  0.41244536  0.42528478  0.52415913    -0.85900
C88         C  0.00842305  0.43738464  0.43133890     0.86400
C89         C  0.05146787  0.03011274  0.42744610     1.07900
H90         H  0.45052923  0.43018124  0.47036715     0.39700
O91         O  0.45869920  0.45162327  0.48035754    -1.08500
O92         O  0.48727234  0.49124115  0.53549093    -0.65200
Ni93       Ni  0.48955902  0.45728692  0.51166429     1.26300
O94         O  0.49205912  0.45195879  0.43059159    -0.65400
O95         O  0.45740092  0.42343127  0.53568276    -0.77700
C96         C  0.04580072  0.45905166  0.53445439     0.85800
O97         O  0.02233514  0.46336513  0.54075265    -0.64900
Ni98       Ni  0.42139743  0.45432081  0.49144706     1.27400
Ni99       Ni  0.48976936  0.48504408  0.45543453     1.26100
H100        H  0.02967261  0.01365969  0.49639272     0.40300
O101        O  0.47392468  0.39448970  0.00794890    -0.79700
O102        O  0.49345646  0.00388874  0.92697600    -0.64300
O103        O  0.00773662  0.45799935  0.98776935    -1.10900
C104        C  0.43411926  0.47965349  0.04182649     1.07200
O105        O  0.50635898  0.04188280  0.96288812    -0.77600
O106        O  0.01253207  0.03659084  0.02238724    -0.65100
Ni107      Ni  0.00446876  0.41697287  0.97701073     1.34900
C108        C  0.02231290  0.02187625  0.03909695     0.86000
O109        O  0.03449420  0.48071704  0.93016176    -0.78100
O110        O  0.03541873  0.43618771  0.94535894    -0.88400
C111        C  0.49943872  0.03252686  0.93512244     0.85500
O112        O  0.46823854  0.40021034  0.94874889    -0.66600
O113        O  0.44563032  0.00185013  0.02676159    -0.85900
C114        C  0.45582458  0.41355868  0.93337957     0.86400
C115        C  0.04506592  0.46069565  0.92845697     1.07900
H116        H  0.45008289  0.47013705  0.97430815     0.39700
O117        O  0.47164592  0.48287435  0.98348408    -1.08500
O118        O  0.00878088  0.49343578  0.03839992    -0.65200
Ni119      Ni  0.47536763  0.45735590  0.01418164     1.26300
O120        O  0.46704012  0.44449778  0.93452829    -0.65400
O121        O  0.44208758  0.45769574  0.03857641    -0.77700
C122        C  0.47740312  0.40327265  0.03585499     0.85800
O123        O  0.48016761  0.43067420  0.04341919    -0.64900
Ni124      Ni  0.47593790  0.02051474  0.99453619     1.27400
Ni125      Ni  0.50267709  0.48229439  0.95645107     1.26100
H126        H  0.02890363  0.47185048  0.99714356     0.40300
C127        C  0.48661704  0.11187594  0.61774060     0.04400
C128        C  0.01696606  0.14134935  0.62379703    -0.11800
C129        C  0.01908469  0.16608718  0.64381507     0.01900
C130        C  0.48989203  0.16241139  0.65478819    -0.10300
C131        C  0.45982189  0.13220842  0.65172026     0.04400
C132        C  0.45874496  0.10684414  0.63314034    -0.09700
H133        H  0.03888179  0.14432734  0.61366840     0.10000
H134        H  0.49130615  0.18271712  0.66810654     0.07500
H135        H  0.43664978  0.08286852  0.63093271     0.07300
C136        C  0.49055407  0.11825633  0.84783009     0.04400
C137        C  0.01849614  0.14496821  0.83581640    -0.11800
C138        C  0.01570563  0.16216961  0.81146814     0.01900
C139        C  0.48412285  0.15334575  0.80125184    -0.10300
C140        C  0.45611749  0.12880649  0.81477282     0.04400
C141        C  0.45929754  0.11066843  0.83762523    -0.09700
H142        H  0.04228155  0.15182477  0.84540735     0.10000
H143        H  0.48069788  0.16571422  0.78269104     0.07500
H144        H  0.43763192  0.09077246  0.84738078     0.07300
C145        C  0.32497922  0.13174604  0.70409461     0.46700
H146        H  0.32879660  0.13263792  0.67972543    -0.02300
C147        C  0.32227176  0.13458904  0.76244712     0.46700
H148        H  0.32200294  0.13612730  0.78727316    -0.02300
C149        C  0.35190206  0.12806108  0.72077818    -0.16000
C150        C  0.32946316  0.16439753  0.71613926    -0.15800
C151        C  0.29049245  0.10516969  0.71569410    -0.16200
C152        C  0.34965670  0.12876698  0.75202175    -0.16100
C153        C  0.32782847  0.16639296  0.74712317    -0.15700
C154        C  0.29065486  0.10511168  0.74756094    -0.16000
C155        C  0.16105130  0.29940131  0.70784378     0.46700
H156        H  0.16104438  0.30242086  0.68340689    -0.02300
C157        C  0.15675905  0.29395320  0.76590705     0.46700
H158        H  0.15402924  0.29194634  0.79059957    -0.02300
C159        C  0.16157141  0.32915069  0.72507916    -0.16000
C160        C  0.12940065  0.26872854  0.71644456    -0.15800
C161        C  0.18892774  0.29490650  0.72217961    -0.16200
C162        C  0.15972595  0.32611813  0.75622046    -0.16100
C163        C  0.12707590  0.26526525  0.74726500    -0.15700
C164        C  0.18822634  0.29587451  0.75406668    -0.16000
C165        C  0.13504671  0.45461956  0.62215972     0.04400
C166        C  0.16260084  0.48606510  0.62839711    -0.11800
C167        C  0.18727120  0.49038096  0.64879530     0.01900
C168        C  0.18573248  0.46311771  0.66171192    -0.10300
C169        C  0.15887742  0.43143748  0.65546197     0.04400
C170        C  0.13324389  0.42713481  0.63581960    -0.09700
H171        H  0.16464033  0.00947049  0.61902049     0.10000
H172        H  0.20475408  0.46676889  0.67791077     0.07500
H173        H  0.11194344  0.40276284  0.63159710     0.07300
C174        C  0.34447741  0.31783597  0.62519551     0.04400
C175        C  0.31910659  0.32042273  0.63881499    -0.11800
C176        C  0.29847218  0.29685883  0.65934277     0.01900
C177        C  0.30401186  0.27134238  0.66588570    -0.10300
C178        C  0.32878238  0.26810989  0.65249375     0.04400
C179        C  0.34890843  0.29145219  0.63184946    -0.09700
H180        H  0.31554211  0.34056875  0.63343969     0.10000
H181        H  0.28814822  0.25302498  0.68149723     0.07500
H182        H  0.36753073  0.28890051  0.62043113     0.07300
C183        C  0.34848047  0.32258825  0.85077911     0.04400
C184        C  0.34994437  0.29611744  0.83703457    -0.11800
C185        C  0.32646550  0.27519954  0.81455685     0.01900
C186        C  0.30111283  0.28090916  0.80683623    -0.10300
C187        C  0.29868673  0.30641866  0.82099752     0.04400
C188        C  0.32264689  0.32753445  0.84283068    -0.09700
H189        H  0.36960230  0.29217326  0.84364517     0.10000
H190        H  0.28312883  0.26562502  0.78920315     0.07500
H191        H  0.32152631  0.34798053  0.85319593     0.07300
C192        C  0.14730556  0.46738558  0.85189870     0.04400
C193        C  0.15023652  0.43907658  0.84990269    -0.11800
C194        C  0.17168664  0.43676744  0.82928751     0.01900
C195        C  0.19286538  0.46551545  0.81406942    -0.10300
C196        C  0.19163648  0.49444096  0.81627639     0.04400
C197        C  0.16792974  0.49481636  0.83478167    -0.09700
H198        H  0.13555387  0.41931284  0.86458005     0.10000
H199        H  0.21022663  0.46548284  0.79886574     0.07500
H200        H  0.16518289  0.01498348  0.83527674     0.07300
C201        C  0.27159798  0.31129068  0.81060950    -0.04100
C202        C  0.23958302  0.29032431  0.82009249    -0.01200
C203        C  0.21241366  0.28735744  0.80358645     0.03800
C204        C  0.21699240  0.30454398  0.77622030    -0.04100
C205        C  0.24983375  0.32945285  0.76997524    -0.01200
C206        C  0.27672302  0.33264008  0.78714883     0.03800
C207        C  0.23464866  0.27111015  0.84667970     0.38400
C208        C  0.25723227  0.35019911  0.74432506     0.38400
C209        C  0.31007797  0.35691387  0.77979823     0.36800
C210        C  0.18029212  0.26553531  0.81507793     0.36800
N211        N  0.33674818  0.37627868  0.77424982    -0.38000
N212        N  0.15530635  0.24880064  0.82589033    -0.38000
N213        N  0.26543058  0.36656694  0.72350690    -0.37400
N214        N  0.23057163  0.25590334  0.86797602    -0.37400
C215        C  0.27011746  0.29690758  0.67415244    -0.04100
C216        C  0.26519757  0.29058242  0.70530797    -0.01200
C217        C  0.23467524  0.28085402  0.71770068     0.03800
C218        C  0.21281456  0.28865776  0.70337080    -0.04100
C219        C  0.21548124  0.29075714  0.67106146    -0.01200
C220        C  0.24411303  0.29521386  0.65677088     0.03800
C221        C  0.29137116  0.29331504  0.72474478     0.38400
C222        C  0.18759283  0.28269661  0.65136075     0.38400
C223        C  0.24580361  0.29617841  0.62394981     0.36800
C224        C  0.22394116  0.25676180  0.74090061     0.36800
N225        N  0.24662935  0.29679383  0.59774439    -0.38000
N226        N  0.21699859  0.23723920  0.75901301    -0.38000
N227        N  0.16579932  0.27590188  0.63473746    -0.37400
N228        N  0.31287493  0.29581017  0.73945264    -0.37400
C229        C  0.16438188  0.35246251  0.77986336    -0.04100
C230        C  0.14096098  0.34631814  0.80233625    -0.01200
C231        C  0.14205517  0.37302032  0.81918051     0.03800
C232        C  0.17088823  0.40487014  0.81984354    -0.04100
C233        C  0.19827754  0.40672940  0.80541996    -0.01200
C234        C  0.19352846  0.38359432  0.78195493     0.03800
C235        C  0.11520537  0.31322811  0.80836835     0.38400
C236        C  0.23148952  0.43150582  0.81523273     0.38400
C237        C  0.21824825  0.39357457  0.75944590     0.36800
C238        C  0.11284773  0.36670220  0.83462309     0.36800
N239        N  0.23802831  0.40391453  0.74131382    -0.38000
N240        N  0.08902211  0.36059645  0.84665044    -0.38000
N241        N  0.25803645  0.45121266  0.82285072    -0.37400
N242        N  0.09488634  0.28769269  0.81581400    -0.37400
C243        C  0.16137587  0.35654285  0.70801935    -0.04100
C244        C  0.18219797  0.37065993  0.68310321    -0.01200
C245        C  0.17964660  0.39330036  0.66482094     0.03800
C246        C  0.15752393  0.40367669  0.67173400    -0.04100
C247        C  0.13721310  0.39061258  0.69660741    -0.01200
C248        C  0.13858095  0.36688115  0.71432102     0.03800
C249        C  0.20755736  0.36349127  0.67620254     0.38400
C250        C  0.11476183  0.40179079  0.70412116     0.38400
C251        C  0.11445716  0.35222813  0.73738312     0.36800
C252        C  0.19976507  0.40584944  0.63841347     0.36800
N253        N  0.09438663  0.34239007  0.75528365    -0.38000
N254        N  0.21566040  0.41556738  0.61727491    -0.38000
N255        N  0.09683289  0.41057128  0.71026891    -0.37400
N256        N  0.22843796  0.35926641  0.66910547    -0.37400
C257        C  0.33054853  0.18898792  0.69487590    -0.04100
C258        C  0.36064809  0.21582844  0.68597325    -0.01200
C259        C  0.36126864  0.24224564  0.67113090     0.03800
C260        C  0.33155232  0.23910246  0.66057557    -0.04100
C261        C  0.30246495  0.20817245  0.66226563    -0.01200
C262        C  0.30140962  0.18449303  0.68138831     0.03800
C263        C  0.39049354  0.21509839  0.68957493     0.38400
C264        C  0.27309401  0.20113720  0.64513542     0.38400
C265        C  0.26976204  0.15613847  0.68682238     0.36800
C266        C  0.39228344  0.27246284  0.66770170     0.36800
N267        N  0.24316102  0.13480321  0.68947257    -0.38000
N268        N  0.41726400  0.29641321  0.66506170    -0.38000
N269        N  0.24957870  0.19541746  0.63173104    -0.37400
N270        N  0.41450787  0.21462344  0.69109076    -0.37400
C271        C  0.32822614  0.19494665  0.76414129    -0.04100
C272        C  0.35751913  0.22568834  0.76999870    -0.01200
C273        C  0.35700710  0.25227771  0.78531112     0.03800
C274        C  0.32796001  0.24740836  0.79849862    -0.04100
C275        C  0.29924092  0.21612891  0.79406633    -0.01200
C276        C  0.29888795  0.19184747  0.77444639     0.03800
C277        C  0.38868662  0.23071563  0.76092072     0.38400
C278        C  0.26963720  0.20837233  0.80981008     0.38400
C279        C  0.26753738  0.16609198  0.76245970     0.36800
C280        C  0.38621889  0.28488507  0.78621658     0.36800
N281        N  0.24115729  0.14798168  0.75352164    -0.38000
N282        N  0.40959748  0.31081230  0.78659488    -0.38000
N283        N  0.24595660  0.20194893  0.82225254    -0.37400
N284        N  0.41476260  0.23698658  0.75498809    -0.37400
C285        C  0.26036652  0.08307930  0.69427147    -0.04100
C286        C  0.26339469  0.07712065  0.66281066    -0.01200
C287        C  0.24035394  0.04681117  0.64799132     0.03800
C288        C  0.21145416  0.02516389  0.66234200    -0.04100
C289        C  0.20395718  0.03552102  0.68959064    -0.01200
C290        C  0.22759769  0.06518227  0.70479917     0.03800
C291        C  0.28534168  0.10315148  0.64359811     0.38400
C292        C  0.17211470  0.01488739  0.70257278     0.38400
C293        C  0.21644893  0.07635981  0.73030648     0.36800
C294        C  0.24638043  0.03779151  0.61805492     0.36800
N295        N  0.20453517  0.08195570  0.75051782    -0.38000
N296        N  0.25112572  0.03030346  0.59428548    -0.38000
N297        N  0.14603330  0.50172171  0.71047658    -0.37400
N298        N  0.30199464  0.12353413  0.62738045    -0.37400
C299        C  0.21688543  0.02310925  0.79994300    -0.04100
C300        C  0.22483613  0.01800617  0.77021468    -0.01200
C301        C  0.25239134  0.04333583  0.75625306     0.03800
C302        C  0.26659418  0.07675832  0.76692818    -0.04100
C303        C  0.25698996  0.08219964  0.79617324    -0.01200
C304        C  0.23465792  0.05528232  0.81331736     0.03800
C305        C  0.20154270  0.48742578  0.75121026     0.38400
C306        C  0.26912293  0.11487436  0.80970685     0.38400
C307        C  0.23174295  0.06088526  0.84534410     0.36800
C308        C  0.26522392  0.03400289  0.73076761     0.36800
N309        N  0.23065123  0.06627659  0.87093115    -0.38000
N310        N  0.27382458  0.02495479  0.71022620    -0.38000
N311        N  0.27839002  0.14010135  0.82231333    -0.37400
N312        N  0.18399691  0.46297475  0.73777815    -0.37400
C313        C  0.37068122  0.12313340  0.77426555    -0.04100
C314        C  0.37682023  0.09708809  0.76880550    -0.01200
C315        C  0.40368730  0.09765992  0.78342520     0.03800
C316        C  0.42370440  0.12332706  0.80467631    -0.04100
C317        C  0.41467430  0.14632684  0.81366742    -0.01200
C318        C  0.38773638  0.14576057  0.79920301     0.03800
C319        C  0.35581094  0.06959434  0.74808836     0.38400
C320        C  0.43445554  0.17194590  0.83665133     0.38400
C321        C  0.37943050  0.16986985  0.80940039     0.36800
C322        C  0.41183826  0.07282933  0.77538945     0.36800
N323        N  0.37291502  0.18878214  0.81892808    -0.38000
N324        N  0.41834702  0.05302320  0.76896299    -0.38000
N325        N  0.45031309  0.19250598  0.85481941    -0.37400
N326        N  0.33971784  0.04711084  0.73178109    -0.37400
C327        C  0.04524505  0.18888688  0.79593413    -0.04100
C328        C  0.07253823  0.18565143  0.78888794    -0.01200
C329        C  0.09925873  0.21054965  0.77332457     0.03800
C330        C  0.09805024  0.23747160  0.76194490    -0.04100
C331        C  0.06927449  0.23846031  0.76582431    -0.01200
C332        C  0.04517950  0.21695546  0.78555828     0.03800
C333        C  0.07366018  0.15677873  0.79704547     0.38400
C334        C  0.06331066  0.26060106  0.74883553     0.38400
C335        C  0.02208033  0.22573618  0.79698151     0.36800
C336        C  0.12728840  0.20718658  0.76813921     0.36800
N337        N  0.50456013  0.23358921  0.80648501    -0.38000
N338        N  0.14893532  0.20298940  0.76504911    -0.38000
N339        N  0.05648205  0.27651536  0.73472312    -0.37400
N340        N  0.07553468  0.13429661  0.80359776    -0.37400
C341        C  0.37927886  0.12706345  0.70378931    -0.04100
C342        C  0.37250630  0.10720299  0.67667014    -0.01200
C343        C  0.39823457  0.10998861  0.65858230     0.03800
C344        C  0.43104511  0.12742539  0.67010447    -0.04100
C345        C  0.43676020  0.14189933  0.69980902    -0.01200
C346        C  0.41263888  0.14586533  0.71410236     0.03800
C347        C  0.33951526  0.08152233  0.66804684     0.38400
C348        C  0.46763121  0.15266067  0.71603550     0.38400
C349        C  0.42414966  0.17154830  0.73773036     0.36800
C350        C  0.39034167  0.09507855  0.62806200     0.36800
N351        N  0.43612185  0.19271961  0.75611637    -0.38000
N352        N  0.38368816  0.08299044  0.60377778    -0.38000
N353        N  0.49276908  0.16134873  0.72783858    -0.37400
N354        N  0.31426251  0.05948715  0.66008270    -0.37400
C355        C  0.05132227  0.19390124  0.65667568    -0.04100
C356        C  0.07416995  0.18760278  0.67121727    -0.01200
C357        C  0.10165731  0.21323294  0.68768166     0.03800
C358        C  0.10468793  0.24425484  0.69303321    -0.04100
C359        C  0.08453069  0.25170684  0.67529659    -0.01200
C360        C  0.05814563  0.22673217  0.65713882     0.03800
C361        C  0.06915443  0.15464222  0.67033441     0.38400
C362        C  0.09126061  0.28509675  0.67421484     0.38400
C363        C  0.03811639  0.23490904  0.63858669     0.36800
C364        C  0.12883758  0.20899751  0.69541832     0.36800
N365        N  0.02210967  0.24135888  0.62378383    -0.38000
N366        N  0.15090254  0.20561768  0.69985612    -0.38000
N367        N  0.09530608  0.31115115  0.67158471    -0.37400
N368        N  0.06523208  0.12836982  0.66962749    -0.37400
C369        C  0.37525136  0.34639296  0.87228265    -0.04100
C370        C  0.37456489  0.33995005  0.90339527    -0.01200
C371        C  0.40012563  0.36265016  0.92361233     0.03800
C372        C  0.42710612  0.39161045  0.91273308    -0.04100
C373        C  0.42745046  0.39816010  0.88160997    -0.01200
C374        C  0.40177839  0.37557068  0.86148697     0.03800
C375        C  0.34781260  0.30964409  0.91453395     0.38400
C376        C  0.45487484  0.42742350  0.86981916     0.38400
C377        C  0.40335260  0.38173470  0.82932924     0.36800
C378        C  0.39796452  0.35679461  0.95585231     0.36800
N379        N  0.40493946  0.38667712  0.80367616    -0.38000
N380        N  0.39596801  0.35230442  0.98160565    -0.38000
N381        N  0.47674541  0.45052897  0.86003403    -0.37400
N382        N  0.32665372  0.28538040  0.92350518    -0.37400
C383        C  0.07070207  0.46587331  0.90635587    -0.04100
C384        C  0.06266386  0.44452163  0.88031918    -0.01200
C385        C  0.08759613  0.44630229  0.86181430     0.03800
C386        C  0.12099788  0.46744548  0.87044924    -0.04100
C387        C  0.12897911  0.48840178  0.89677028    -0.01200
C388        C  0.10401991  0.48855181  0.91385099     0.03800
C389        C  0.02879996  0.41968300  0.87307631     0.38400
C390        C  0.16268641  0.50790229  0.90779482     0.38400
C391        C  0.11261961  0.51114390  0.94003588     0.36800
C392        C  0.07883014  0.42636605  0.83373435     0.36800
N393        N  0.11480754  0.02811083  0.95726963    -0.38000
N394        N  0.07188539  0.41068944  0.81120051    -0.38000
N395        N  0.18679540  0.02473167  0.91533876    -0.37400
N396        N  0.50153448  0.39961310  0.86682915    -0.37400
C397        C  0.49395639  0.09723418  0.87029351    -0.04100
C398        C  0.00245897  0.07403829  0.86060225    -0.01200
C399        C  0.00557328  0.05383580  0.88171737     0.03800
C400        C  0.49851742  0.05542147  0.91273058    -0.04100
C401        C  0.49022542  0.07921581  0.92227447    -0.01200
C402        C  0.48857831  0.10028015  0.90121775     0.03800
C403        C  0.00746980  0.07053746  0.82862079     0.38400
C404        C  0.48274149  0.08200171  0.95366994     0.38400
C405        C  0.48180789  0.12559484  0.91138070     0.36800
C406        C  0.01779569  0.03282362  0.87156802     0.36800
N407        N  0.47669471  0.14601969  0.91933363    -0.38000
N408        N  0.02818394  0.01667307  0.86325936    -0.38000
N409        N  0.47693564  0.08427485  0.97874409    -0.37400
N410        N  0.01121002  0.06769706  0.80305839    -0.37400
C411        C  0.40766971  0.38722863  0.56013899    -0.04100
C412        C  0.37517935  0.36242611  0.55159733    -0.01200
C413        C  0.35448945  0.34016200  0.57296544     0.03800
C414        C  0.36612288  0.34206273  0.60298271    -0.04100
C415        C  0.39922899  0.36524804  0.61097507    -0.01200
C416        C  0.42019675  0.38718512  0.58941791     0.03800
C417        C  0.36365981  0.35828297  0.52017097     0.38400
C418        C  0.41161082  0.36704940  0.64164489     0.38400
C419        C  0.45460727  0.40923762  0.59746741     0.36800
C420        C  0.32147069  0.31461949  0.56366446     0.36800
N421        N  0.48209129  0.42650083  0.60395354    -0.38000
N422        N  0.29529304  0.29425125  0.55576304    -0.38000
N423        N  0.42165490  0.36881100  0.66611158    -0.37400
N424        N  0.35468982  0.35475008  0.49504649    -0.37400
C425        C  0.47847022  0.03406009  0.55705501    -0.04100
C426        C  0.47223042  0.02866631  0.58817369    -0.01200
C427        C  0.47628911  0.05445997  0.60817244     0.03800
C428        C  0.48468681  0.08538605  0.59690234    -0.04100
C429        C  0.49060749  0.09069788  0.56559921    -0.01200
C430        C  0.48874632  0.06551266  0.54600933     0.03800
C431        C  0.95981507  0.99613150  0.59962884     0.38400
C432        C  0.49624204  0.12112760  0.55309764     0.38400
C433        C  0.49752661  0.07193279  0.51449493     0.36800
C434        C  0.97206969  0.04931113  0.64065131     0.36800
N435        N  0.50500109  0.07716049  0.48947630    -0.38000
N436        N  0.96846783  0.04520941  0.66639853    -0.38000
N437        N  0.50008768  0.14508991  0.54293578    -0.37400
N438        N  0.94897100  0.46931317  0.60850431    -0.37400
C439        C  0.06415622  0.45368461  0.55906754    -0.04100
C440        C  0.07269076  0.47257742  0.58674499    -0.01200
C441        C  0.09355614  0.47055787  0.60842348     0.03800
C442        C  0.10808967  0.45146713  0.60188761    -0.04100
C443        C  0.09937238  0.43238992  0.57433973    -0.01200
C444        C  0.07648000  0.43239788  0.55367413     0.03800
C445        C  0.06266664  0.49655489  0.59194746     0.38400
C446        C  0.11628409  0.41529442  0.56575200     0.38400
C447        C  0.06624287  0.41093123  0.52645222     0.36800
C448        C  0.10116235  0.48962294  0.63691632     0.36800
N449        N  0.05803979  0.39389362  0.50470560    -0.38000
N450        N  0.10701192  0.50540638  0.65925080    -0.38000
N451        N  0.13017461  0.40218300  0.55852245    -0.37400
N452        N  0.05519091  0.51605990  0.59601525    -0.37400
C453        C  0.11323025  0.10591131  0.36636788    -0.04100
C454        C  0.08112109  0.08136551  0.35676904    -0.01200
C455        C  0.05973829  0.05822916  0.37740558     0.03800
C456        C  0.07143216  0.05737532  0.40684350    -0.04100
C457        C  0.10304584  0.08288040  0.41681371    -0.01200
C458        C  0.12361078  0.10726182  0.39684230     0.03800
C459        C  0.07041218  0.07934464  0.32542620     0.34000
C460        C  0.11338324  0.08555389  0.44845259     0.38400
C461        C  0.15492888  0.13463754  0.40813366     0.36800
C462        C  0.02554990  0.03629774  0.36862477     0.36800
N463        N  0.17968176  0.15660752  0.41738797    -0.38000
N464        N  0.49815046  0.01864925  0.36068325    -0.38000
N465        N  0.12116629  0.08768611  0.47380024    -0.37400
N466        N  0.06204143  0.07754451  0.30031443    -0.37400
C467        C  0.36640862  0.47997101  0.36372538    -0.04100
C468        C  0.38475241  0.46492702  0.35704042    -0.01200
C469        C  0.40670628  0.46537423  0.37911990     0.03800
C470        C  0.41243131  0.48324710  0.40724400    -0.04100
C471        C  0.39295428  0.00074750  0.41438950    -0.01200
C472        C  0.36911744  0.99760701  0.39308372     0.03800
C473        C  0.38231202  0.45044382  0.32689893     0.38400
C474        C  0.39937257  0.02127004  0.44182886     0.38400
C475        C  0.35035741  0.01330675  0.39974042     0.36800
C476        C  0.42211692  0.44618879  0.37309809     0.36800
N477        N  0.33562021  0.02605500  0.40491245    -0.38000
N478        N  0.43415636  0.43067078  0.36823918    -0.38000
N479        N  0.40426661  0.03758138  0.46367367    -0.37400
N480        N  0.38103888  0.43951814  0.30270923    -0.37400
C481        C  0.99159441  0.35926770  0.36727225    -0.04100
C482        C  0.48428338  0.35261883  0.39809474    -0.01200
C483        C  0.48722443  0.37752887  0.41878930     0.03800
C484        C  0.99997456  0.40980964  0.40912210    -0.04100
C485        C  0.00703254  0.41648663  0.37828643    -0.01200
C486        C  0.00209169  0.39117607  0.35733184     0.03800
C487        C  0.47565167  0.32056076  0.40883447     0.38400
C488        C  0.02109900  0.44980123  0.36821307     0.38400
C489        C  0.00848673  0.39813858  0.32547021     0.36800
C490        C  0.47648449  0.36969722  0.44965855     0.36800
N491        N  0.01362765  0.40349729  0.30005923    -0.38000
N492        N  0.46731466  0.36341191  0.47412229    -0.38000
N493        N  0.03281069  0.47625529  0.35969200    -0.37400
N494        N  0.46934326  0.29514619  0.41743375    -0.37400
C495        C  0.36460839  0.47498888  0.10761219    -0.04100
C496        C  0.36642695  0.48819223  0.07895940    -0.01200
C497        C  0.38799284  0.48837928  0.05719630     0.03800
C498        C  0.40809036  0.47502487  0.06358441    -0.04100
C499        C  0.40420928  0.45938817  0.09148144    -0.01200
C500        C  0.38378500  0.46079366  0.11384031     0.03800
C501        C  0.34520344  0.50074773  0.07137385     0.38400
C502        C  0.41897312  0.93784338  0.09842687     0.38400
C503        C  0.38325361  0.94720835  0.14497791     0.36800
C504        C  0.38777949  0.50061601  0.02742364     0.36800
N505        N  0.38467683  0.93880669  0.16903045    -0.38000
N506        N  0.38745001  0.51028013  0.00369463    -0.38000
N507        N  0.43084364  0.92226944  0.10311986    -0.37400
N508        N  0.32821511  0.51061000  0.06513970    -0.37400
C509        C  0.47703592  0.38039434  0.05914379    -0.04100
C510        C  0.49019656  0.39187697  0.08929325    -0.01200
C511        C  0.49061854  0.36997379  0.11028484     0.03800
C512        C  0.48009242  0.33725245  0.10093143    -0.04100
C513        C  0.46912223  0.32631871  0.07070568    -0.01200
C514        C  0.46574589  0.34686593  0.05050603     0.03800
C515        C  0.00503325  0.42640776  0.09846801     0.38400
C516        C  0.46242707  0.29400158  0.05994066     0.38400
C517        C  0.45004339  0.33255674  0.02099310     0.36800
C518        C  0.00354041  0.38141899  0.14095097     0.36800
N519        N  0.43753103  0.32087192  0.99754094    -0.38000
N520        N  0.01341218  0.39012141  0.16569103    -0.38000
N521        N  0.45774923  0.26859994  0.05110827    -0.37400
N522        N  0.01713946  0.45387033  0.10635964    -0.37400
C523        C  0.08932917  0.29910220  0.19032712    -0.04100
C524        C  0.05789464  0.27511321  0.19995914    -0.01200
C525        C  0.02993583  0.26404775  0.18089036     0.03800
C526        C  0.03178750  0.28036537  0.15373351    -0.04100
C527        C  0.06299794  0.29982246  0.14180043    -0.01200
C528        C  0.09154958  0.30898971  0.15958883     0.03800
C529        C  0.05296743  0.26150523  0.22978081     0.38400
C530        C  0.06575288  0.30868799  0.11021468     0.38400
C531        C  0.12237402  0.32855767  0.14495524     0.36800
C532        C  0.00092768  0.23342013  0.18838384     0.36800
N533        N  0.14575094  0.34263097  0.13105466    -0.38000
N534        N  0.47853342  0.20793112  0.19459867    -0.38000
N535        N  0.06816440  0.31591775  0.08512197    -0.37400
N536        N  0.04673675  0.25053679  0.25353845    -0.37400
C537        C  0.10074912  0.32647171  0.26149875    -0.04100
C538        C  0.10024349  0.32623344  0.29399361    -0.01200
C539        C  0.07271716  0.32242166  0.30940242     0.03800
C540        C  0.04801094  0.32422378  0.29355165    -0.04100
C541        C  0.05338002  0.33445696  0.26353871    -0.01200
C542        C  0.08006296  0.33658737  0.24778003     0.03800
C543        C  0.12910502  0.33542393  0.31268285     0.38400
C544        C  0.03236615  0.34461499  0.24949319     0.38400
C545        C  0.08715275  0.35270753  0.21918664     0.36800
C546        C  0.07011843  0.31732030  0.34182368     0.36800
N547        N  0.09024899  0.36567659  0.19659102    -0.38000
N548        N  0.06788006  0.31346065  0.36768240    -0.38000
N549        N  0.01591681  0.35308882  0.23839680    -0.37400
N550        N  0.15169813  0.34311359  0.32852364    -0.37400
C551        C  0.25588160  0.40653323  0.15682563    -0.04100
C552        C  0.22427007  0.40215746  0.15628459    -0.01200
C553        C  0.20151102  0.38230672  0.17761435     0.03800
C554        C  0.20624257  0.35984962  0.19397168    -0.04100
C555        C  0.23583359  0.36019054  0.19060254    -0.01200
C556        C  0.26122540  0.38460138  0.17364940     0.03800
C557        C  0.21579914  0.41959250  0.13486237     0.38400
C558        C  0.24058283  0.33538984  0.20393179     0.38400
C559        C  0.29293583  0.38739643  0.17482470     0.36800
C560        C  0.17571257  0.38855227  0.18481397     0.36800
N561        N  0.31780872  0.38867031  0.17626943    -0.38000
N562        N  0.15648271  0.39589764  0.18957845    -0.38000
N563        N  0.24600871  0.31608018  0.21326624    -0.37400
N564        N  0.20931351  0.43368641  0.11784282    -0.37400
C565        C  0.26045494  0.41607045  0.29876120    -0.04100
C566        C  0.26042497  0.38661291  0.29106329    -0.01200
C567        C  0.23255793  0.35941214  0.27632888     0.03800
C568        C  0.20728343  0.36318883  0.26394390    -0.04100
C569        C  0.20617878  0.39137392  0.27319239    -0.01200
C570        C  0.23105556  0.41601310  0.29266739     0.03800
C571        C  0.28868830  0.38367976  0.29742427     0.38400
C572        C  0.17903109  0.39501213  0.26375867     0.38400
C573        C  0.22519598  0.44014415  0.30771985     0.36800
C574        C  0.22881410  0.32703670  0.27628798     0.36800
N575        N  0.21988541  0.45895787  0.31964029    -0.38000
N576        N  0.22594281  0.30128518  0.27746130    -0.38000
N577        N  0.15792652  0.39915841  0.25699013    -0.37400
N578        N  0.31081840  0.38052672  0.30235718    -0.37400
C579        C  0.14214429  0.25039971  0.26398399    -0.04100
C580        C  0.15688746  0.23207354  0.25495109    -0.01200
C581        C  0.15128183  0.20481378  0.27114087     0.03800
C582        C  0.14363476  0.20321030  0.30185047    -0.04100
C583        C  0.13026696  0.22195985  0.31257427    -0.01200
C584        C  0.12634423  0.24275935  0.29247953     0.03800
C585        C  0.18040034  0.24197909  0.23128794     0.38400
C586        C  0.11950888  0.21905078  0.34352177     0.38400
C587        C  0.10340921  0.25283276  0.30047462     0.36800
C588        C  0.15082477  0.17700552  0.25578233     0.36800
N589        N  0.08370417  0.25860385  0.30812806    -0.38000
N590        N  0.14946598  0.15408507  0.24407691    -0.38000
N591        N  0.11083221  0.21680378  0.36821180    -0.37400
N592        N  0.19962150  0.24854850  0.21284463    -0.37400
C593        C  0.37154857  0.20238640  0.26854994    -0.04100
C594        C  0.38792422  0.19836047  0.29408105    -0.01200
C595        C  0.41506361  0.22585731  0.30911041     0.03800
C596        C  0.42654592  0.25779516  0.29938944    -0.04100
C597        C  0.41001580  0.26263157  0.27542265    -0.01200
C598        C  0.38270298  0.23541455  0.26018202     0.03800
C599        C  0.38004962  0.16616216  0.30370844     0.38400
C600        C  0.42251793  0.29589165  0.26531839     0.38400
C601        C  0.36897684  0.24266659  0.23430250     0.36800
C602        C  0.43261680  0.22121670  0.33380990     0.36800
N603        N  0.36130805  0.25138885  0.21323584    -0.38000
N604        N  0.44676140  0.21755655  0.35333269    -0.38000
N605        N  0.43264627  0.32236331  0.25723040    -0.37400
N606        N  0.37506066  0.14140599  0.31288599    -0.37400
C607        C  0.36620303  0.18764535  0.19627316    -0.04100
C608        C  0.35961766  0.19263504  0.16557603    -0.01200
C609        C  0.38450131  0.21815582  0.14895170     0.03800
C610        C  0.41601381  0.23790260  0.16204284    -0.04100
C611        C  0.42248042  0.23235047  0.19170806    -0.01200
C612        C  0.39956056  0.20429780  0.20607862     0.03800
C613        C  0.33002061  0.16947308  0.14841112     0.38400
C614        C  0.45242870  0.25629958  0.20811335     0.38400
C615        C  0.41195255  0.19125653  0.22845526     0.36800
C616        C  0.37762909  0.22426533  0.11845163     0.36800
N617        N  0.42365331  0.18237622  0.24605352    -0.38000
N618        N  0.37188948  0.22939005  0.09434433    -0.38000
N619        N  0.47616923  0.27562966  0.22120609    -0.37400
N620        N  0.30715682  0.15155658  0.13337780    -0.37400
C621        C  0.26764318  0.15350198  0.27934234    -0.04100
C622        C  0.25957834  0.17629277  0.26926049    -0.01200
C623        C  0.23378831  0.17851398  0.28187394     0.03800
C624        C  0.21913892  0.16234013  0.30901761    -0.04100
C625        C  0.23490993  0.14799999  0.32430092    -0.01200
C626        C  0.25945938  0.14414785  0.30987540     0.03800
C627        C  0.28254694  0.20315362  0.25137662     0.38400
C628        C  0.22846946  0.14028902  0.35600038     0.38400
C629        C  0.27965594  0.13678055  0.32884327     0.36800
C630        C  0.22574789  0.20027046  0.26709570     0.36800
N631        N  0.29567614  0.13179483  0.34522249    -0.38000
N632        N  0.22285628  0.21972188  0.25457192    -0.38000
N633        N  0.22357798  0.13429018  0.38132832    -0.37400
N634        N  0.29985671  0.22683446  0.23899827    -0.37400
C635        C  0.32180918  0.08878475  0.27167706    -0.04100
C636        C  0.30041441  0.07065385  0.29487729    -0.01200
C637        C  0.30427105  0.04709948  0.31002476     0.03800
C638        C  0.32679250  0.03849547  0.29978463    -0.04100
C639        C  0.34927430  0.05717371  0.27790644    -0.01200
C640        C  0.34757388  0.08297418  0.26453699     0.03800
C641        C  0.27123290  0.07177561  0.30046930     0.38400
C642        C  0.37336777  0.04888122  0.26846287     0.38400
C643        C  0.37193293  0.10215132  0.24277846     0.36800
C644        C  0.28507293  0.53138231  0.33788551     0.36800
N645        N  0.39209039  0.11573087  0.22539655    -0.38000
N646        N  0.26994604  0.51886745  0.35889425    -0.38000
N647        N  0.39240800  0.04198083  0.26112455    -0.37400
N648        N  0.24661329  0.06991249  0.30556167    -0.37400
C649        C  0.31172287  0.02512441  0.17395454    -0.04100
C650        C  0.29169255  0.02036510  0.19947149    -0.01200
C651        C  0.28744876  0.04606299  0.21118703     0.03800
C652        C  0.30851982  0.07900089  0.20332468    -0.04100
C653        C  0.32964088  0.08422516  0.17877768    -0.01200
C654        C  0.32914748  0.05733130  0.16289079     0.03800
C655        C  0.27520862  0.98922154  0.21448209     0.38400
C656        C  0.35461446  0.11681323  0.17063452     0.38400
C657        C  0.34637789  0.06332302  0.13468216     0.36800
C658        C  0.25966024  0.03774071  0.22984753     0.36800
N659        N  0.36029635  0.06853971  0.11226971    -0.38000
N660        N  0.23653376  0.02968709  0.24378923    -0.38000
N661        N  0.37668685  0.14087612  0.16245393    -0.37400
N662        N  0.27569648  0.46633235  0.22890802    -0.37400
C663        C  0.09845078  0.08440926  0.10535471    -0.04100
C664        C  0.10350135  0.09032572  0.07413676    -0.01200
C665        C  0.07910017  0.06914815  0.05233259     0.03800
C666        C  0.04932270  0.04216808  0.06169176    -0.04100
C667        C  0.04455977  0.03624887  0.09300876    -0.01200
C668        C  0.06936021  0.05682299  0.11466031     0.03800
C669        C  0.13352899  0.11868732  0.06456232     0.38400
C670        C  0.01309541  0.01114043  0.10346581     0.38400
C671        C  0.06442145  0.05056156  0.14677708     0.36800
C672        C  0.08431905  0.07551753  0.02028445     0.36800
N673        N  0.06069416  0.04563659  0.17239527    -0.38000
N674        N  0.08824121  0.08053008  0.99469302    -0.38000
N675        N  0.48829342  0.99154879  0.11280390    -0.37400
N676        N  0.15749831  0.14131887  0.05692699    -0.37400
C677        C  0.19445648  0.13125099  0.18040529    -0.04100
C678        C  0.19012269  0.10954484  0.20343554    -0.01200
C679        C  0.21760159  0.11094719  0.21796071     0.03800
C680        C  0.25007652  0.13507163  0.21049454    -0.04100
C681        C  0.25380401  0.15756483  0.18797997    -0.01200
C682        C  0.22633850  0.15514472  0.17275256     0.03800
C683        C  0.15727340  0.08687038  0.21322461     0.38400
C684        C  0.28509131  0.18602036  0.18206534     0.38400
C685        C  0.23089735  0.17839035  0.14971534     0.36800
C686        C  0.21170453  0.08755203  0.24090610     0.36800
N687        N  0.23458904  0.19707859  0.13158841    -0.38000
N688        N  0.20508579  0.06826745  0.25914813    -0.38000
N689        N  0.30806733  0.21038488  0.17576421    -0.37400
N690        N  0.13103076  0.06917410  0.22114876    -0.37400
C691        C  0.13372137  0.24456823  0.19196204    -0.04100
C692        C  0.15372894  0.24722800  0.16699402    -0.01200
C693        C  0.15242080  0.21881592  0.15419016     0.03800
C694        C  0.13169096  0.18786892  0.16608028    -0.04100
C695        C  0.10852459  0.18434584  0.18736248    -0.01200
C696        C  0.10866802  0.21241596  0.19940460     0.03800
C697        C  0.17801503  0.27866508  0.15560000     0.38400
C698        C  0.08561314  0.15188323  0.19803691     0.38400
C699        C  0.08361114  0.20760315  0.22034657     0.36800
C700        C  0.17365065  0.22150328  0.12965290     0.36800
N701        N  0.06309279  0.20197364  0.23712432    -0.38000
N702        N  0.19039736  0.22362112  0.10997750    -0.38000
N703        N  0.06746381  0.12598795  0.20659404    -0.37400
N704        N  0.19734151  0.30277852  0.14485563    -0.37400
C705        C  0.11926573  0.60743993  0.13103228     0.04400
C706        C  0.11377131  0.63315951  0.13841059    -0.11800
C707        C  0.13301552  0.65690716  0.16092070     0.01900
C708        C  0.15815796  0.65522185  0.17589656    -0.10300
C709        C  0.16370451  0.62932102  0.16911466     0.04400
C710        C  0.14393307  0.60517487  0.14659309    -0.09700
H711        H  0.09455310  0.63470889  0.12655685     0.10000
H712        H  0.17400861  0.67461909  0.19239975     0.07500
H713        H  0.14815593  0.58528303  0.14075014     0.07300
C714        C  0.31689610  0.64299957  0.26879650     0.46700
H715        H  0.32154124  0.64609619  0.29334558    -0.02300
C716        C  0.30581373  0.63473132  0.21058012     0.46700
H717        H  0.29963795  0.62941165  0.18621406    -0.02300
C718        C  0.28535143  0.64203952  0.25958375    -0.16000
C719        C  0.34369464  0.67209582  0.25169468    -0.15800
C720        C  0.31482144  0.61124874  0.25489462    -0.16200
C721        C  0.27882821  0.63691072  0.22844060    -0.16100
C722        C  0.33885307  0.66691025  0.22008318    -0.15700
C723        C  0.30881085  0.60669243  0.22390499    -0.16000
C724        C  0.14753234  0.80912914  0.25769737     0.46700
H725        H  0.15038278  0.81069838  0.28236073    -0.02300
C726        C  0.14554945  0.80378113  0.19930091     0.46700
H727        H  0.14520631  0.80145815  0.17458618    -0.02300
C728        C  0.17938356  0.83500490  0.24392117    -0.16000
C729        C  0.14159640  0.77514041  0.24540752    -0.15800
C730        C  0.12056041  0.81483726  0.24280290    -0.16200
C731        C  0.17836519  0.83272864  0.21285691    -0.16100
C732        C  0.13965583  0.77235089  0.21385498    -0.15700
C733        C  0.11810638  0.80852292  0.21124998    -0.16000
C734        C  0.47937799  0.81045794  0.12258918     0.04400
C735        C  0.00614846  0.80694911  0.12911871    -0.11800
C736        C  0.00148904  0.77730044  0.14090905     0.01900
C737        C  0.46936144  0.75179585  0.14419033    -0.10300
C738        C  0.44400485  0.75853228  0.14515239     0.04400
C739        C  0.44866198  0.78753593  0.13326354    -0.09700
H740        H  0.03029187  0.82723825  0.12457111     0.10000
H741        H  0.46358635  0.72731386  0.14916159     0.07500
H742        H  0.42854959  0.79197590  0.13163537     0.07300
C743        C  0.33817558  0.97005601  0.12969185     0.04400
C744        C  0.34162167  0.50046054  0.14364571    -0.11800
C745        C  0.31418667  0.49832636  0.15799202     0.01900
C746        C  0.28310161  0.96545118  0.15590761    -0.10300
C747        C  0.28235497  0.93651194  0.14655016     0.04400
C748        C  0.30947169  0.93918046  0.13183518    -0.09700
H749        H  0.36449255  0.52375048  0.14328047     0.10000
H750        H  0.26083086  0.96364359  0.16339967     0.07500
H751        H  0.30816774  0.91731859  0.12181046     0.07300
C752        C  0.99052967  0.83694159  0.34426641     0.04400
C753        C  0.45987767  0.80880307  0.33470485    -0.11800
C754        C  0.45831843  0.78665750  0.31182517     0.01900
C755        C  0.98734079  0.79230423  0.29893612    -0.10300
C756        C  0.01777196  0.81951863  0.30818624     0.04400
C757        C  0.01927285  0.84154854  0.33109172    -0.09700
H758        H  0.43751392  0.80529934  0.34425302     0.10000
H759        H  0.48602796  0.77464215  0.28134098     0.07500
H760        H  0.04275254  0.86283243  0.33809255     0.07300
C761        C  0.33992428  0.97804257  0.34211777     0.04400
C762        C  0.34748114  0.50803904  0.32975527    -0.11800
C763        C  0.32420643  0.50791951  0.31044379     0.01900
C764        C  0.29745495  0.97744766  0.29772587    -0.10300
C765        C  0.29049611  0.94711927  0.30912475     0.04400
C766        C  0.31196571  0.94784775  0.33204433    -0.09700
H767        H  0.36904655  0.53130067  0.33696549     0.10000
H768        H  0.28182549  0.97821600  0.28028471     0.07500
H769        H  0.30694010  0.92541488  0.34252585     0.07300
C770        C  0.13506409  0.62996911  0.34651853     0.04400
C771        C  0.16377564  0.63129814  0.33684972    -0.11800
C772        C  0.18815002  0.65905823  0.32221567     0.01900
C773        C  0.18256020  0.68514115  0.31812708    -0.10300
C774        C  0.15128797  0.68079061  0.32135009     0.04400
C775        C  0.12789649  0.65371100  0.33690303    -0.09700
H776        H  0.16676017  0.61054522  0.34090525     0.10000
H777        H  0.20153047  0.70828296  0.30986729     0.07500
H778        H  0.10420453  0.65076217  0.34106770     0.07300
O779        O  0.05461315  0.96120876  0.50692442    -0.79700
O780        O  0.45706647  0.98160854  0.42592931    -0.64300
O781        O  0.02082238  0.99219755  0.48630508    -1.10900
C782        C  0.42671701  0.91542821  0.53803707     1.07200
O783        O  0.42743761  0.98723186  0.46055681    -0.77600
O784        O  0.44447379  0.99484770  0.51909111    -0.65100
Ni785      Ni  0.05724389  0.98839905  0.47409083     1.34900
C786        C  0.46906904  0.50367873  0.53506015     0.86000
O787        O  0.02186191  0.51929208  0.43162869    -0.78100
O788        O  0.06515921  0.51360057  0.44008100    -0.88400
C789        C  0.43286258  0.98434738  0.43290904     0.85500
O790        O  0.03293163  0.94930381  0.44884601    -0.66600
O791        O  0.41188975  0.92712156  0.52350409    -0.85900
C792        C  0.00834324  0.94000237  0.43108766     0.86400
C793        C  0.05125309  0.52721369  0.42716479     1.07900
H794        H  0.45014048  0.93273440  0.47007843     0.39700
O795        O  0.45873443  0.95420817  0.48015487    -1.08500
O796        O  0.48831949  0.99333313  0.53525644    -0.65200
Ni797      Ni  0.48958055  0.95910758  0.51104884     1.26300
O798        O  0.49151645  0.95378279  0.43007809    -0.65400
O799        O  0.45694743  0.92534112  0.53502074    -0.77700
C800        C  0.04574805  0.96021201  0.53414758     0.85800
O801        O  0.02182913  0.96377813  0.54061882    -0.64900
Ni802      Ni  0.42184164  0.95748230  0.49167658     1.27400
Ni803      Ni  0.48979063  0.98732819  0.45491406     1.26100
H804        H  0.02988959  0.51193733  0.49584201     0.40300
O805        O  0.47416975  0.89129491  0.00730123    -0.79700
O806        O  0.49663817  0.50858742  0.92769013    -0.64300
O807        O  0.00668187  0.95435072  0.98670261    -1.10900
C808        C  0.43338080  0.97607061  0.04242966     1.07200
O809        O  0.50823220  0.54661210  0.96335901    -0.77600
O810        O  0.01398370  0.54000976  0.02217971    -0.65100
Ni811      Ni  0.00335978  0.91334458  0.97552243     1.34900
C812        C  0.02248308  0.52459613  0.03935506     0.86000
O813        O  0.03165934  0.97674958  0.92841318    -0.78100
O814        O  0.03323487  0.93238146  0.94290281    -0.88400
C815        C  0.50203329  0.53708377  0.93558849     0.85500
O816        O  0.46667239  0.89583663  0.94792934    -0.66600
O817        O  0.44753163  0.50625771  0.02728555    -0.85900
C818        C  0.45374348  0.90890598  0.93285213     0.86400
C819        C  0.04241087  0.95692631  0.92610828     1.07900
H820        H  0.44827156  0.96536077  0.97491534     0.39700
O821        O  0.47005391  0.97853039  0.98351787    -1.08500
O822        O  0.00970422  0.99078729  0.03780880    -0.65200
Ni823      Ni  0.47514022  0.95390293  0.01428676     1.26300
O824        O  0.46457880  0.93978805  0.93423819    -0.65400
O825        O  0.44249858  0.95479810  0.04001126    -0.77700
C826        C  0.47883750  0.90036686  0.03519748     0.85800
O827        O  0.48127357  0.92760229  0.04313432    -0.64900
Ni828      Ni  0.47788604  0.52497727  0.99499039     1.27400
Ni829      Ni  0.50046339  0.97799754  0.95553061     1.26100
H830        H  0.02815073  0.96835372  0.99542007     0.40300
C831        C  0.48608443  0.61095492  0.61615642     0.04400
C832        C  0.01675751  0.64061050  0.62119503    -0.11800
C833        C  0.01931191  0.66597432  0.64070529     0.01900
C834        C  0.49032701  0.66263482  0.65220430    -0.10300
C835        C  0.46015689  0.63260497  0.64964752     0.04400
C836        C  0.45851067  0.60664447  0.63159244    -0.09700
H837        H  0.03847356  0.64312331  0.61103696     0.10000
H838        H  0.49203656  0.68321537  0.66530466     0.07500
H839        H  0.43611524  0.58285855  0.62973004     0.07300
C840        C  0.49199421  0.62011545  0.84631206     0.04400
C841        C  0.01958175  0.64663515  0.83384934    -0.11800
C842        C  0.01618009  0.66312273  0.80927810     0.01900
C843        C  0.48415296  0.65374963  0.79929488    -0.10300
C844        C  0.45657512  0.62942075  0.81343262     0.04400
C845        C  0.46042927  0.61194191  0.83651515    -0.09700
H846        H  0.04353431  0.65413391  0.84345805     0.10000
H847        H  0.48024359  0.66545189  0.78042566     0.07500
H848        H  0.43908594  0.59213292  0.84674755     0.07300
C849        C  0.32531731  0.63129525  0.70230969     0.46700
H850        H  0.32915319  0.63247340  0.67794023    -0.02300
C851        C  0.32223322  0.63380083  0.76066474     0.46700
H852        H  0.32154751  0.63503685  0.78547962    -0.02300
C853        C  0.35251299  0.62811215  0.71916024    -0.16000
C854        C  0.32912152  0.66364256  0.71439011    -0.15800
C855        C  0.29101412  0.60419108  0.71377030    -0.16200
C856        C  0.34996361  0.62843176  0.75038393    -0.16100
C857        C  0.32750696  0.66554387  0.74535491    -0.15700
C858        C  0.29090034  0.60415114  0.74563155    -0.16000
C859        C  0.16073947  0.79979272  0.70512458     0.46700
H860        H  0.16123317  0.80296926  0.68065594    -0.02300
C861        C  0.15556172  0.79407317  0.76311745     0.46700
H862        H  0.15257649  0.79178118  0.78776751    -0.02300
C863        C  0.16152815  0.82965661  0.72242072    -0.16000
C864        C  0.12870092  0.76934743  0.71331928    -0.15800
C865        C  0.18812560  0.79482682  0.71987516    -0.16200
C866        C  0.15942436  0.82661552  0.75355078    -0.16100
C867        C  0.12588102  0.76589063  0.74409733    -0.15700
C868        C  0.18682786  0.79546301  0.75171080    -0.16000
C869        C  0.13656936  0.95633424  0.62085609     0.04400
C870        C  0.16355125  0.98792637  0.62813818    -0.11800
C871        C  0.18804062  0.99214594  0.64878489     0.01900
C872        C  0.18694729  0.96475365  0.66089914    -0.10300
C873        C  0.16078206  0.93301167  0.65352140     0.04400
C874        C  0.13530577  0.92873346  0.63368373    -0.09700
H875        H  0.16408040  0.50750610  0.61859625     0.10000
H876        H  0.20563419  0.96828663  0.67746083     0.07500
H877        H  0.11437134  0.90425179  0.62887261     0.07300
C878        C  0.34570209  0.81942175  0.62560584     0.04400
C879        C  0.31952686  0.82129977  0.63830466    -0.11800
C880        C  0.29920807  0.79809203  0.65921480     0.01900
C881        C  0.30573966  0.77353531  0.66699530    -0.10300
C882        C  0.33088030  0.77059225  0.65410739     0.04400
C883        C  0.35094696  0.79378562  0.63330855    -0.09700
H884        H  0.31510277  0.84064050  0.63194162     0.10000
H885        H  0.29001483  0.75533862  0.68277508     0.07500
H886        H  0.36990104  0.79145681  0.62231557     0.07300
C887        C  0.34541296  0.82002832  0.84957142     0.04400
C888        C  0.34658828  0.79349470  0.83557614    -0.11800
C889        C  0.32356870  0.77329789  0.81244333     0.01900
C890        C  0.29860982  0.77959437  0.80464023    -0.10300
C891        C  0.29614243  0.80489170  0.81929665     0.04400
C892        C  0.31991664  0.82547644  0.84153358    -0.09700
H893        H  0.36581166  0.78902862  0.84249571     0.10000
H894        H  0.28102436  0.76506658  0.78649151     0.07500
H895        H  0.31886820  0.84583689  0.85220128     0.07300
C896        C  0.14687267  0.96598409  0.85123635     0.04400
C897        C  0.15032946  0.93796789  0.84961858    -0.11800
C898        C  0.17298735  0.93628362  0.83007026     0.01900
C899        C  0.19529253  0.96570427  0.81636334    -0.10300
C900        C  0.19312029  0.99408623  0.81780880     0.04400
C901        C  0.16820925  0.99380277  0.83487995    -0.09700
H902        H  0.13519000  0.91803644  0.86391312     0.10000
H903        H  0.21400752  0.96665650  0.80243617     0.07500
H904        H  0.16510248  0.51611360  0.83562353     0.07300
C905        C  0.26907081  0.80994961  0.80916427    -0.04100
C906        C  0.23682072  0.78815890  0.81770292    -0.01200
C907        C  0.20993847  0.78574191  0.80115623     0.03800
C908        C  0.21505142  0.80377509  0.77431155    -0.04100
C909        C  0.24788042  0.82931239  0.76908729    -0.01200
C910        C  0.27448652  0.83242655  0.78668016     0.03800
C911        C  0.23128913  0.76755799  0.84333001     0.38400
C912        C  0.25562924  0.85076633  0.74395332     0.38400
C913        C  0.30782923  0.85786404  0.78067495     0.36800
C914        C  0.17757934  0.76393230  0.81219781     0.36800
N915        N  0.33437814  0.87831854  0.77604482    -0.38000
N916        N  0.15239596  0.74730140  0.82271760    -0.38000
N917        N  0.26421658  0.86773845  0.72356651    -0.37400
N918        N  0.22654876  0.75112706  0.86381988    -0.37400
C919        C  0.27021852  0.79755748  0.67320436    -0.04100
C920        C  0.26542254  0.79243954  0.70453266    -0.01200
C921        C  0.23461071  0.78201069  0.71645386     0.03800
C922        C  0.21245355  0.78892982  0.70153534    -0.04100
C923        C  0.21499646  0.78997557  0.66917234    -0.01200
C924        C  0.24367387  0.79400874  0.65523992     0.03800
C925        C  0.29172036  0.79625518  0.72445661     0.38400
C926        C  0.18703728  0.78143548  0.64936740     0.38400
C927        C  0.24465599  0.79193068  0.62240867     0.36800
C928        C  0.22351723  0.75696078  0.73875387     0.36800
N929        N  0.24481449  0.78975424  0.59620163    -0.38000
N930        N  0.21609483  0.73657078  0.75604339    -0.38000
N931        N  0.16510722  0.77422909  0.63278117    -0.37400
N932        N  0.31342218  0.79953329  0.73938530    -0.37400
C933        C  0.16429782  0.85293202  0.77740202    -0.04100
C934        C  0.14102827  0.84648222  0.80009557    -0.01200
C935        C  0.14268902  0.87278016  0.81809803     0.03800
C936        C  0.17181492  0.90441340  0.81950973    -0.04100
C937        C  0.19890720  0.90625609  0.80444722    -0.01200
C938        C  0.19366276  0.88392055  0.77998896     0.03800
C939        C  0.11484571  0.81339161  0.80541201     0.38400
C940        C  0.23227785  0.92935862  0.81522231     0.38400
C941        C  0.21797298  0.89481487  0.75701095     0.36800
C942        C  0.11380029  0.86603488  0.83433662     0.36800
N943        N  0.23738003  0.90602454  0.73859866    -0.38000
N944        N  0.09014877  0.85939474  0.84695129    -0.38000
N945        N  0.25893146  0.94761664  0.82374139    -0.37400
N946        N  0.09416969  0.78787208  0.81248507    -0.37400
C947        C  0.16174429  0.85711816  0.70540242    -0.04100
C948        C  0.18328659  0.87158248  0.68107053    -0.01200
C949        C  0.18182157  0.89512658  0.66328408     0.03800
C950        C  0.15926456  0.90512999  0.66960013    -0.04100
C951        C  0.13820360  0.89159291  0.69392476    -0.01200
C952        C  0.13897176  0.86748001  0.71145269     0.03800
C953        C  0.20823789  0.86373786  0.67437421     0.38400
C954        C  0.11609498  0.90319605  0.70145880     0.38400
C955        C  0.11459784  0.85272533  0.73431466     0.36800
C956        C  0.20406124  0.90950671  0.63852040     0.36800
N957        N  0.09450175  0.84275535  0.75218897    -0.38000
N958        N  0.22200208  0.92081134  0.61893284    -0.38000
N959        N  0.09856362  0.91246835  0.70763389    -0.37400
N960        N  0.22869095  0.85872020  0.66759434    -0.37400
C961        C  0.33095140  0.68885466  0.69341558    -0.04100
C962        C  0.36136980  0.71677422  0.68691454    -0.01200
C963        C  0.36253635  0.74379725  0.67273920     0.03800
C964        C  0.33318814  0.74122015  0.66185898    -0.04100
C965        C  0.30399741  0.71009989  0.66178428    -0.01200
C966        C  0.30248443  0.68464312  0.67862530     0.03800
C967        C  0.39126097  0.71650635  0.69214236     0.38400
C968        C  0.27499442  0.70450847  0.64488035     0.38400
C969        C  0.27117398  0.65449895  0.67985475     0.36800
C970        C  0.39383132  0.77380408  0.66969194     0.36800
N971        N  0.24487884  0.63184072  0.67892327    -0.38000
N972        N  0.41914650  0.79737352  0.66715250    -0.38000
N973        N  0.25184271  0.70023983  0.63176350    -0.37400
N974        N  0.41538434  0.71642725  0.69500582    -0.37400
C975        C  0.32729363  0.69386085  0.76216139    -0.04100
C976        C  0.35643490  0.72411677  0.76993249    -0.01200
C977        C  0.35526801  0.75059964  0.78468848     0.03800
C978        C  0.32539867  0.74586764  0.79580865    -0.04100
C979        C  0.29662164  0.71502808  0.78914159    -0.01200
C980        C  0.29740538  0.69128030  0.76963703     0.03800
C981        C  0.38809197  0.72883904  0.76329486     0.38400
C982        C  0.26589818  0.70675723  0.80286582     0.38400
C983        C  0.26711952  0.66675808  0.75472850     0.36800
C984        C  0.38482949  0.78294053  0.78718916     0.36800
N985        N  0.24195784  0.64975800  0.74274220    -0.38000
N986        N  0.40856212  0.80860795  0.78888887    -0.38000
N987        N  0.24129377  0.69975809  0.81375833    -0.37400
N988        N  0.41452384  0.73487217  0.75951989    -0.37400
C989        C  0.26112902  0.58174109  0.69233632    -0.04100
C990        C  0.26436471  0.57427081  0.66133320    -0.01200
C991        C  0.24085502  0.54372010  0.64723650     0.03800
C992        C  0.21132444  0.52362494  0.66140289    -0.04100
C993        C  0.20394108  0.53569033  0.68765407    -0.01200
C994        C  0.22821641  0.56521448  0.70255435     0.03800
C995        C  0.28703191  0.59908084  0.64151882     0.38400
C996        C  0.17158329  0.51681535  0.70016595     0.38400
C997        C  0.21771697  0.57750375  0.72774062     0.36800
C998        C  0.24698026  0.53299084  0.61815584     0.36800
N999        N  0.20643639  0.58395629  0.74794688    -0.38000
N1000       N  0.25189500  0.52424763  0.59508245    -0.38000
N1001       N  0.14692293  0.99830348  0.71307762    -0.37400
N1002       N  0.30414134  0.61840288  0.62469674    -0.37400
C1003       C  0.21541876  0.52338977  0.79815454    -0.04100
C1004       C  0.22324022  0.51798081  0.76846054    -0.01200
C1005       C  0.25149821  0.54260966  0.75474942     0.03800
C1006       C  0.26628308  0.57617514  0.76507362    -0.04100
C1007       C  0.25621087  0.58227009  0.79380957    -0.01200
C1008       C  0.23338828  0.55578675  0.81115824     0.03800
C1009       C  0.20444214  0.98671010  0.75346289     0.38400
C1010       C  0.26785585  0.61528199  0.80619377     0.38400
C1011       C  0.22948752  0.56222935  0.84274927     0.36800
C1012       C  0.26442708  0.53243348  0.72994500     0.36800
N1013       N  0.22708084  0.56801817  0.86794919    -0.38000
N1014       N  0.27327327  0.52276527  0.71006755    -0.38000
N1015       N  0.27664177  0.64090960  0.81772339    -0.37400
N1016       N  0.18814676  0.96162854  0.74044910    -0.37400
C1017       C  0.37085243  0.62264464  0.77268892    -0.04100
C1018       C  0.37772117  0.59713878  0.76682635    -0.01200
C1019       C  0.40471114  0.59804136  0.78154244     0.03800
C1020       C  0.42390741  0.62325077  0.80344744    -0.04100
C1021       C  0.41403138  0.64545752  0.81287423    -0.01200
C1022       C  0.38710261  0.64469112  0.79818659     0.03800
C1023       C  0.35726730  0.56980356  0.74573531     0.38400
C1024       C  0.43303888  0.67068670  0.83641051     0.38400
C1025       C  0.37790754  0.66795573  0.80890582     0.36800
C1026       C  0.41396342  0.57415913  0.77295653     0.36800
N1027       N  0.37060776  0.68609948  0.81889376    -0.38000
N1028       N  0.42155353  0.55524744  0.76619074    -0.38000
N1029       N  0.44816119  0.69102550  0.85499032    -0.37400
N1030       N  0.34154200  0.54741515  0.72920322    -0.37400
C1031       C  0.04527319  0.68982847  0.79350595    -0.04100
C1032       C  0.07261170  0.68679364  0.78620762    -0.01200
C1033       C  0.09859167  0.71130017  0.76976086     0.03800
C1034       C  0.09693038  0.73798828  0.75853523    -0.04100
C1035       C  0.06818171  0.73891680  0.76290273    -0.01200
C1036       C  0.04453750  0.71747975  0.78297334     0.03800
C1037       C  0.07465072  0.65863800  0.79515109     0.38400
C1038       C  0.06177207  0.76090025  0.74614724     0.38400
C1039       C  0.02108929  0.72577311  0.79448095     0.36800
C1040       C  0.12624747  0.70768382  0.76326418     0.36800
N1041       N  0.50281628  0.73309416  0.80401790    -0.38000
N1042       N  0.14758591  0.70328173  0.75892758    -0.38000
N1043       N  0.05445853  0.77665447  0.73236093    -0.37400
N1044       N  0.07736139  0.63683235  0.80238139    -0.37400
C1045       C  0.38011764  0.62756764  0.70223235    -0.04100
C1046       C  0.37339396  0.60804119  0.67494713    -0.01200
C1047       C  0.39906089  0.61157910  0.65646704     0.03800
C1048       C  0.43177379  0.62853020  0.66805422    -0.04100
C1049       C  0.43766754  0.64272288  0.69788828    -0.01200
C1050       C  0.41350594  0.64633217  0.71258964     0.03800
C1051       C  0.34078801  0.58098978  0.66728767     0.38400
C1052       C  0.46866189  0.65336714  0.71384852     0.38400
C1053       C  0.42494573  0.67118658  0.73697892     0.36800
C1054       C  0.39125617  0.59803737  0.62546991     0.36800
N1055       N  0.43697542  0.69170602  0.75595333    -0.38000
N1056       N  0.38475438  0.58722823  0.60073604    -0.38000
N1057       N  0.49380946  0.66185413  0.72553741    -0.37400
N1058       N  0.31596461  0.55767443  0.66048114    -0.37400
C1059       C  0.05167214  0.69407458  0.65302873    -0.04100
C1060       C  0.07460203  0.68815982  0.66790528    -0.01200
C1061       C  0.10206680  0.71416535  0.68404748     0.03800
C1062       C  0.10438626  0.74482571  0.68966067    -0.04100
C1063       C  0.08405742  0.75192770  0.67179949    -0.01200
C1064       C  0.05827974  0.72684373  0.65313862     0.03800
C1065       C  0.06946762  0.65518609  0.66807225     0.38400
C1066       C  0.09013995  0.78511527  0.67112995     0.38400
C1067       C  0.03861465  0.73477078  0.63377681     0.36800
C1068       C  0.13011121  0.71097851  0.69058195     0.36800
N1069       N  0.02296040  0.74101562  0.61822639    -0.38000
N1070       N  0.15295497  0.70864484  0.69390509    -0.38000
N1071       N  0.09392677  0.81113267  0.66901326    -0.37400
N1072       N  0.06526587  0.62883063  0.66837597    -0.37400
C1073       C  0.37227472  0.84333184  0.87137939    -0.04100
C1074       C  0.37205943  0.83574134  0.90212550    -0.01200
C1075       C  0.39820405  0.85744689  0.92240479     0.03800
C1076       C  0.42500783  0.88693893  0.91206181    -0.04100
C1077       C  0.42490039  0.89456690  0.88128345    -0.01200
C1078       C  0.39880205  0.87283435  0.86107573     0.03800
C1079       C  0.34487839  0.80549062  0.91287595     0.38400
C1080       C  0.45240973  0.92403204  0.86984675     0.38400
C1081       C  0.39985597  0.88029839  0.82928376     0.36800
C1082       C  0.39684567  0.84990395  0.95418386     0.36800
N1083       N  0.40097609  0.88628605  0.80391353    -0.38000
N1084       N  0.39546395  0.84392852  0.97957601    -0.38000
N1085       N  0.47441186  0.94732736  0.86045471    -0.37400
N1086       N  0.32321401  0.78134076  0.92147727    -0.37400
C1087       C  0.06824472  0.96290018  0.90387403    -0.04100
C1088       C  0.06096449  0.94161657  0.87792665    -0.01200
C1089       C  0.08647319  0.94348570  0.86015566     0.03800
C1090       C  0.11973019  0.96556085  0.86893120    -0.04100
C1091       C  0.12682451  0.98723654  0.89457832    -0.01200
C1092       C  0.10127024  0.98663143  0.91124618     0.03800
C1093       C  0.02717912  0.91749859  0.86953636     0.38400
C1094       C  0.16033043  0.00832490  0.90557895     0.38400
C1095       C  0.10895314  0.00967252  0.93690670     0.36800
C1096       C  0.07837523  0.92274836  0.83266490     0.36800
N1097       N  0.11938244  0.52930584  0.96080621    -0.38000
N1098       N  0.07175179  0.90628054  0.81066010    -0.38000
N1099       N  0.18938110  0.52294918  0.91733002    -0.37400
N1100       N  0.50020344  0.89686484  0.86341789    -0.37400
C1101       C  0.49624786  0.60016570  0.86926820    -0.04100
C1102       C  0.00504452  0.57674600  0.86000493    -0.01200
C1103       C  0.00837313  0.55718742  0.88166476     0.03800
C1104       C  0.50132739  0.55968161  0.91276555    -0.04100
C1105       C  0.49273542  0.58344962  0.92162408    -0.01200
C1106       C  0.49112840  0.60406246  0.90005979     0.03800
C1107       C  0.01022397  0.57262662  0.82818763     0.38400
C1108       C  0.48414773  0.58619938  0.95261305     0.38400
C1109       C  0.48457894  0.62975376  0.90947505     0.36800
C1110       C  0.02052002  0.53593133  0.87209188     0.36800
N1111       N  0.47971989  0.65055752  0.91665619    -0.38000
N1112       N  0.03070216  0.51948148  0.86415987    -0.38000
N1113       N  0.47715479  0.58844036  0.97725563    -0.37400
N1114       N  0.01418163  0.56910657  0.80281914    -0.37400
C1115       C  0.40721871  0.88891741  0.55958039    -0.04100
C1116       C  0.37448528  0.86406821  0.55166857    -0.01200
C1117       C  0.35470226  0.84114664  0.57310701     0.03800
C1118       C  0.36695044  0.84331402  0.60291664    -0.04100
C1119       C  0.40018447  0.86658010  0.61024748    -0.01200
C1120       C  0.42053119  0.88849099  0.58836732     0.03800
C1121       C  0.36175359  0.86035060  0.52076079     0.38400
C1122       C  0.41357400  0.86811964  0.64040459     0.38400
C1123       C  0.45524899  0.90985173  0.59549206     0.36800
C1124       C  0.32241246  0.81396960  0.56388720     0.36800
N1125       N  0.48300603  0.92640606  0.60115922    -0.38000
N1126       N  0.29699097  0.79195287  0.55617298    -0.38000
N1127       N  0.42457441  0.86964069  0.66438102    -0.37400
N1128       N  0.35152819  0.85695472  0.49609929    -0.37400
C1129       C  0.47678204  0.53202797  0.55619024    -0.04100
C1130       C  0.47091415  0.52712515  0.58743346    -0.01200
C1131       C  0.47551063  0.55331898  0.60721153     0.03800
C1132       C  0.48346804  0.58396171  0.59555510    -0.04100
C1133       C  0.48856783  0.58863100  0.56409658    -0.01200
C1134       C  0.48674500  0.56326916  0.54479209     0.03800
C1135       C  0.95925769  0.49514683  0.59887986     0.38400
C1136       C  0.49386679  0.61879951  0.55127762     0.38400
C1137       C  0.49599015  0.56954423  0.51338383     0.36800
C1138       C  0.97302362  0.54930232  0.63935427     0.36800
N1139       N  0.50406546  0.57472793  0.48851415    -0.38000
N1140       N  0.97095675  0.54587645  0.66527706    -0.38000
N1141       N  0.49751569  0.64261658  0.54095499    -0.37400
N1142       N  0.94913363  0.97004233  0.60878353    -0.37400
C1143       C  0.06444825  0.95477427  0.55856892    -0.04100
C1144       C  0.07223965  0.97259640  0.58686439    -0.01200
C1145       C  0.09391771  0.97109981  0.60803669     0.03800
C1146       C  0.10936971  0.95305359  0.60073862    -0.04100
C1147       C  0.10078805  0.93438307  0.57296541    -0.01200
C1148       C  0.07780141  0.93447751  0.55243430     0.03800
C1149       C  0.06019044  0.99468384  0.59348212     0.38400
C1150       C  0.11747482  0.91707267  0.56431208     0.38400
C1151       C  0.06842113  0.91398908  0.52462709     0.36800
C1152       C  0.10115330  0.98926285  0.63703852     0.36800
N1153       N  0.06097495  0.89777379  0.50238928    -0.38000
N1154       N  0.10700142  0.00412256  0.65994643    -0.38000
N1155       N  0.13101971  0.90356133  0.55722458    -0.37400
N1156       N  0.05093821  0.01257486  0.59881391    -0.37400
C1157       C  0.11286060  0.60391315  0.36713845    -0.04100
C1158       C  0.08021656  0.58051029  0.35791828    -0.01200
C1159       C  0.05911684  0.55669692  0.37814853     0.03800
C1160       C  0.07131583  0.55455241  0.40688047    -0.04100
C1161       C  0.10340283  0.57904430  0.41665713    -0.01200
C1162       C  0.12401604  0.60362995  0.39696308     0.03800
C1163       C  0.06854126  0.58044167  0.32735548     0.34000
C1164       C  0.11428834  0.58051441  0.44795375     0.38400
C1165       C  0.15617390  0.62952233  0.40814827     0.36800
C1166       C  0.02478679  0.53518074  0.36958538     0.36800
N1167       N  0.18152093  0.65007641  0.41778976    -0.38000
N1168       N  0.49731179  0.51872821  0.36344612    -0.38000
N1169       N  0.12243973  0.58162744  0.47303521    -0.37400
N1170       N  0.05932315  0.58036772  0.30291757    -0.37400
C1171       C  0.36356283  0.97947408  0.36533286    -0.04100
C1172       C  0.38245696  0.96503070  0.35881889    -0.01200
C1173       C  0.40489265  0.96633769  0.38081052     0.03800
C1174       C  0.41054915  0.98442571  0.40881703    -0.04100
C1175       C  0.39629993  0.50101900  0.41251984    -0.01200
C1176       C  0.37261436  0.49840603  0.39140493     0.03800
C1177       C  0.38014647  0.95035236  0.32880000     0.38400
C1178       C  0.40443606  0.52272718  0.43938858     0.38400
C1179       C  0.35452005  0.51474334  0.39833380     0.36800
C1180       C  0.42076360  0.94758345  0.37483166     0.36800
N1181       N  0.34026097  0.52794575  0.40373069    -0.38000
N1182       N  0.43310761  0.93233950  0.37005901    -0.38000
N1183       N  0.41098740  0.54009999  0.46074412    -0.37400
N1184       N  0.37888909  0.93926400  0.30469520    -0.37400
C1185       C  0.99247393  0.86247531  0.36639318    -0.04100
C1186       C  0.48329219  0.85437379  0.39706932    -0.01200
C1187       C  0.48590143  0.87925015  0.41766831     0.03800
C1188       C  0.00017356  0.91270090  0.40855371    -0.04100
C1189       C  0.00964497  0.92011419  0.37828934    -0.01200
C1190       C  0.00496754  0.89503204  0.35712264     0.03800
C1191       C  0.47384255  0.82210488  0.40782868     0.38400
C1192       C  0.02603367  0.95394904  0.36916416     0.38400
C1193       C  0.01359102  0.90296577  0.32576216     0.36800
C1194       C  0.47422370  0.87124354  0.44825576     0.36800
N1195       N  0.02058794  0.90930840  0.30079204    -0.38000
N1196       N  0.46442274  0.86485179  0.47251467    -0.38000
N1197       N  0.03973123  0.98081886  0.36149329    -0.37400
N1198       N  0.46692890  0.79655683  0.41653649    -0.37400
C1199       C  0.36392469  0.97282580  0.10852603    -0.04100
C1200       C  0.36566570  0.98544066  0.07957993    -0.01200
C1201       C  0.38731425  0.98539684  0.05790694     0.03800
C1202       C  0.40736029  0.97189499  0.06439947    -0.04100
C1203       C  0.40335230  0.95663522  0.09253623    -0.01200
C1204       C  0.38307646  0.95857634  0.11489376     0.03800
C1205       C  0.34396451  0.99729800  0.07151162     0.38400
C1206       C  0.42064929  0.44135611  0.09735294     0.38400
C1207       C  0.38392100  0.44915235  0.14383515     0.36800
C1208       C  0.38718849  0.99759758  0.02809559     0.36800
N1209       N  0.38511760  0.44053810  0.16785055    -0.38000
N1210       N  0.38706870  0.00731771  0.00434317    -0.38000
N1211       N  0.43354504  0.42676978  0.10214674    -0.37400
N1212       N  0.32645195  0.00644589  0.06498248    -0.37400
C1213       C  0.47963363  0.87778053  0.05817680    -0.04100
C1214       C  0.49501185  0.88991029  0.08750959    -0.01200
C1215       C  0.49553740  0.86819811  0.10866189     0.03800
C1216       C  0.48159117  0.83454225  0.10056833    -0.04100
C1217       C  0.46860278  0.82279652  0.07093719    -0.01200
C1218       C  0.46682927  0.84380323  0.05012560     0.03800
C1219       C  0.01083906  0.92474314  0.09619057     0.38400
C1220       C  0.45799616  0.78894129  0.06145500     0.38400
C1221       C  0.45175818  0.82962130  0.02039882     0.36800
C1222       C  0.00920892  0.88035135  0.13934764     0.36800
N1223       N  0.44002561  0.81799016  0.99670294    -0.38000
N1224       N  0.02105038  0.88985690  0.16341144    -0.38000
N1225       N  0.44997607  0.76214404  0.05381697    -0.37400
N1226       N  0.02489627  0.95253828  0.10319701    -0.37400
C1227       C  0.08769596  0.79598743  0.19062857    -0.04100
C1228       C  0.05637571  0.77200183  0.20065083    -0.01200
C1229       C  0.02832480  0.75991463  0.18139405     0.03800
C1230       C  0.03000623  0.77518741  0.15363949    -0.04100
C1231       C  0.06104570  0.79396778  0.14133798    -0.01200
C1232       C  0.08968724  0.80460392  0.15946000     0.03800
C1233       C  0.05183022  0.75970801  0.23104402     0.38400
C1234       C  0.06346849  0.80083165  0.10921743     0.38400
C1235       C  0.12035712  0.82474922  0.14479520     0.36800
C1236       C  0.99950413  0.72920016  0.18903306     0.36800
N1237       N  0.14357467  0.83927467  0.13079413    -0.38000
N1238       N  0.47755199  0.70433589  0.19560996    -0.38000
N1239       N  0.06565894  0.80643529  0.08369302    -0.37400
N1240       N  0.04664651  0.75019800  0.25541277    -0.37400
C1241       C  0.10006484  0.82616756  0.26094058    -0.04100
C1242       C  0.10014887  0.82737560  0.29341234    -0.01200
C1243       C  0.07284396  0.82407879  0.30882530     0.03800
C1244       C  0.04786474  0.82531117  0.29281449    -0.04100
C1245       C  0.05262204  0.83404116  0.26230711    -0.01200
C1246       C  0.07910206  0.83558100  0.24663889     0.03800
C1247       C  0.12950700  0.83783493  0.31181824     0.38400
C1248       C  0.03105303  0.84300410  0.24743857     0.38400
C1249       C  0.08585590  0.85060064  0.21748286     0.36800
C1250       C  0.07071132  0.81976069  0.34135363     0.36800
N1251       N  0.08881387  0.86272401  0.19441709    -0.38000
N1252       N  0.06906231  0.81639259  0.36729288    -0.38000
N1253       N  0.01415109  0.85042728  0.23551075    -0.37400
N1254       N  0.15247503  0.84648316  0.32742247    -0.37400
C1255       C  0.25447991  0.90436252  0.15642231    -0.04100
C1256       C  0.22251459  0.89896482  0.15515934    -0.01200
C1257       C  0.19981867  0.87922370  0.17659164     0.03800
C1258       C  0.20486788  0.85726090  0.19345618    -0.04100
C1259       C  0.23499704  0.85849647  0.19073351    -0.01200
C1260       C  0.26037027  0.88334638  0.17410230     0.03800
C1261       C  0.21334599  0.91475418  0.13256061     0.38400
C1262       C  0.24065005  0.83446726  0.20446258     0.38400
C1263       C  0.29268877  0.88770376  0.17668120     0.36800
C1264       C  0.17421736  0.88572375  0.18383097     0.36800
N1265       N  0.31806261  0.89025638  0.17936068    -0.38000
N1266       N  0.15527980  0.89341785  0.18876688    -0.38000
N1267       N  0.24745552  0.81618923  0.21394286    -0.37400
N1268       N  0.20598406  0.92710848  0.11437716    -0.37400
C1269       C  0.26029661  0.91578103  0.29687054    -0.04100
C1270       C  0.26021371  0.88622793  0.28969593    -0.01200
C1271       C  0.23220477  0.85875514  0.27546964     0.03800
C1272       C  0.20672853  0.86223620  0.26312561    -0.04100
C1273       C  0.20591566  0.89076829  0.27148906    -0.01200
C1274       C  0.23106259  0.91589163  0.29035144     0.03800
C1275       C  0.28858778  0.88348746  0.29606927     0.38400
C1276       C  0.17865852  0.89419225  0.26196172     0.38400
C1277       C  0.22557977  0.94073505  0.30436437     0.36800
C1278       C  0.22861517  0.82646692  0.27587173     0.36800
N1279       N  0.22030038  0.95995101  0.31541820    -0.38000
N1280       N  0.22602191  0.80085987  0.27732998    -0.38000
N1281       N  0.15744217  0.89817666  0.25522572    -0.37400
N1282       N  0.31070734  0.88029596  0.30090401    -0.37400
C1283       C  0.14204644  0.74994123  0.26611158    -0.04100
C1284       C  0.15617042  0.73123815  0.25639563    -0.01200
C1285       C  0.14997652  0.70338762  0.27189605     0.03800
C1286       C  0.14279585  0.70139922  0.30268137    -0.04100
C1287       C  0.13059106  0.72079747  0.31441957    -0.01200
C1288       C  0.12735616  0.74274846  0.29520974     0.03800
C1289       C  0.17990846  0.74167588  0.23288890     0.38400
C1290       C  0.11995087  0.71692341  0.34545471     0.38400
C1291       C  0.10676072  0.75510349  0.30509449     0.36800
C1292       C  0.14790574  0.67512744  0.25587148     0.36800
N1293       N  0.08909558  0.76302032  0.31427653    -0.38000
N1294       N  0.14524584  0.65163529  0.24409663    -0.38000
N1295       N  0.11131377  0.71340096  0.37021051    -0.37400
N1296       N  0.19928009  0.74915463  0.21446201    -0.37400
C1297       C  0.37114636  0.70265789  0.26952144    -0.04100
C1298       C  0.38773341  0.69901686  0.29513063    -0.01200
C1299       C  0.41493719  0.72673498  0.30994079     0.03800
C1300       C  0.42639921  0.75855557  0.29989922    -0.04100
C1301       C  0.40949947  0.76308407  0.27610889    -0.01200
C1302       C  0.38228401  0.73566694  0.26094909     0.03800
C1303       C  0.37978155  0.66698287  0.30529993     0.38400
C1304       C  0.42106021  0.79636577  0.26648533     0.38400
C1305       C  0.36856714  0.74302482  0.23518780     0.36800
C1306       C  0.43207365  0.72251154  0.33526843     0.36800
N1307       N  0.36129605  0.75258987  0.21449840    -0.38000
N1308       N  0.44570759  0.71916463  0.35546109    -0.38000
N1309       N  0.43010178  0.82279014  0.25880675    -0.37400
N1310       N  0.37460757  0.64232520  0.31488687    -0.37400
C1311       C  0.36477282  0.68783921  0.19771336    -0.04100
C1312       C  0.35786678  0.69474734  0.16789500    -0.01200
C1313       C  0.38339616  0.71925697  0.15091267     0.03800
C1314       C  0.41541021  0.73713122  0.16341854    -0.04100
C1315       C  0.42167881  0.73072001  0.19278818    -0.01200
C1316       C  0.39819182  0.70289111  0.20693541     0.03800
C1317       C  0.32672848  0.67420097  0.15184863     0.38400
C1318       C  0.45210911  0.75352394  0.20914644     0.38400
C1319       C  0.40989610  0.68907004  0.22917411     0.36800
C1320       C  0.37677840  0.72603584  0.12059539     0.36800
N1321       N  0.42121114  0.67980937  0.24679048    -0.38000
N1322       N  0.37137489  0.73166980  0.09657319    -0.38000
N1323       N  0.47621010  0.77185429  0.22231376    -0.37400
N1324       N  0.30262928  0.65827777  0.13762914    -0.37400
C1325       C  0.26766504  0.65288215  0.28114081    -0.04100
C1326       C  0.25965226  0.67557476  0.27122438    -0.01200
C1327       C  0.23251653  0.67583587  0.28239398     0.03800
C1328       C  0.21812342  0.65996067  0.30970942    -0.04100
C1329       C  0.23441610  0.64641082  0.32556122    -0.01200
C1330       C  0.25941286  0.64318145  0.31147814     0.03800
C1331       C  0.28402500  0.70462607  0.25660361     0.38400
C1332       C  0.22782618  0.63833281  0.35714202     0.38400
C1333       C  0.28008641  0.63651074  0.33056194     0.36800
C1334       C  0.22208218  0.69415238  0.26488524     0.36800
N1335       N  0.29657658  0.63208807  0.34686334    -0.38000
N1336       N  0.21756204  0.71071097  0.24937786    -0.38000
N1337       N  0.22324686  0.63178134  0.38237279    -0.37400
N1338       N  0.30230757  0.72981608  0.24695844    -0.37400
C1339       C  0.32147791  0.58906304  0.27340906    -0.04100
C1340       C  0.30040885  0.57106632  0.29693250    -0.01200
C1341       C  0.30460191  0.54760404  0.31193834     0.03800
C1342       C  0.32715902  0.53914267  0.30137141    -0.04100
C1343       C  0.34940399  0.55796186  0.27935227    -0.01200
C1344       C  0.34726780  0.58348615  0.26600158     0.03800
C1345       C  0.27086567  0.57165809  0.30243785     0.38400
C1346       C  0.37340835  0.54983612  0.26928287     0.38400
C1347       C  0.37027951  0.60173523  0.24292314     0.36800
C1348       C  0.28439378  0.03098315  0.33581631     0.36800
N1349       N  0.38873346  0.61440789  0.22398371    -0.38000
N1350       N  0.26883916  0.01864431  0.35665459    -0.38000
N1351       N  0.39249011  0.54328821  0.26124359    -0.37400
N1352       N  0.24597393  0.56941057  0.30711025    -0.37400
C1353       C  0.31412290  0.52689784  0.17463947    -0.04100
C1354       C  0.29676484  0.52170057  0.20189717    -0.01200
C1355       C  0.29027884  0.54570398  0.21396026     0.03800
C1356       C  0.30797120  0.57865947  0.20457346    -0.04100
C1357       C  0.32733921  0.58449197  0.17840401    -0.01200
C1358       C  0.32819878  0.55837897  0.16245151     0.03800
C1359       C  0.28525863  0.49137628  0.21778056     0.38400
C1360       C  0.34942073  0.61713331  0.16829179     0.38400
C1361       C  0.34392098  0.56448765  0.13339215     0.36800
C1362       C  0.26336276  0.53493801  0.23426521     0.36800
N1363       N  0.35679170  0.57006146  0.11039079    -0.38000
N1364       N  0.24094342  0.52410093  0.24959890    -0.38000
N1365       N  0.36921902  0.64109259  0.15775920    -0.37400
N1366       N  0.26119514  0.96400208  0.22569082    -0.37400
C1367       C  0.09756862  0.58251401  0.10751252    -0.04100
C1368       C  0.10456114  0.58814203  0.07650673    -0.01200
C1369       C  0.08032956  0.56857293  0.05396211     0.03800
C1370       C  0.04890941  0.54378726  0.06251116    -0.04100
C1371       C  0.04223978  0.53823564  0.09359714    -0.01200
C1372       C  0.06685380  0.55670166  0.11593659     0.03800
C1373       C  0.13638854  0.61465375  0.06798187     0.38400
C1374       C  0.00919606  0.51642401  0.10304653     0.38400
C1375       C  0.06012643  0.55017814  0.14782532     0.36800
C1376       C  0.08739051  0.57447710  0.02208174     0.36800
N1377       N  0.05479022  0.54478507  0.17320636    -0.38000
N1378       N  0.09286728  0.57918051  0.99662287    -0.38000
N1379       N  0.48321190  0.50146502  0.11226048    -0.37400
N1380       N  0.16185588  0.63580969  0.06132039    -0.37400
C1381       C  0.19256517  0.62996735  0.18358235    -0.04100
C1382       C  0.18887199  0.60603506  0.20401515    -0.01200
C1383       C  0.21679782  0.60790816  0.21814805     0.03800
C1384       C  0.24888861  0.63436714  0.21273436    -0.04100
C1385       C  0.25185820  0.65867446  0.19274860    -0.01200
C1386       C  0.22416312  0.65605935  0.17790651     0.03800
C1387       C  0.15616668  0.58009796  0.21120821     0.38400
C1388       C  0.28256043  0.68840495  0.18843887     0.38400
C1389       C  0.22823808  0.68088388  0.15681018     0.36800
C1390       C  0.21195392  0.58225285  0.23813462     0.36800
N1391       N  0.23153283  0.70078278  0.14022940    -0.38000
N1392       N  0.20656842  0.56102770  0.25382420    -0.38000
N1393       N  0.30494368  0.71358267  0.18298732    -0.37400
N1394       N  0.12995959  0.55963596  0.21689789    -0.37400
C1395       C  0.13136454  0.74187128  0.19427843    -0.04100
C1396       C  0.15044260  0.74393903  0.16871696    -0.01200
C1397       C  0.14806193  0.71520828  0.15560188     0.03800
C1398       C  0.12802185  0.68466303  0.16838268    -0.04100
C1399       C  0.10569787  0.68159675  0.19042017    -0.01200
C1400       C  0.10645549  0.70995371  0.20255574     0.03800
C1401       C  0.17517751  0.77510035  0.15717475     0.38400
C1402       C  0.08296086  0.64930125  0.20153071     0.38400
C1403       C  0.08255737  0.70572532  0.22468757     0.36800
C1404       C  0.16732883  0.71713080  0.12959267     0.36800
N1405       N  0.06317893  0.70076118  0.24259027    -0.38000
N1406       N  0.18239832  0.71870153  0.10864752    -0.38000
N1407       N  0.06496684  0.62349094  0.21035159    -0.37400
N1408       N  0.19479933  0.79913427  0.14653669    -0.37400
C1409       C  0.62093723  0.10961598  0.12831113     0.04400
C1410       C  0.61620369  0.13585807  0.13574936    -0.11800
C1411       C  0.63618435  0.15977801  0.15797481     0.01900
C1412       C  0.66125240  0.15770504  0.17263216    -0.10300
C1413       C  0.66616242  0.13147009  0.16564648     0.04400
C1414       C  0.64572350  0.10717378  0.14348655    -0.09700
H1415       H  0.59691407  0.13759989  0.12428536     0.10000
H1416       H  0.67733610  0.17686284  0.18923524     0.07500
H1417       H  0.64941157  0.08690993  0.13773592     0.07300
C1418       C  0.81728846  0.14332378  0.26724298     0.46700
H1419       H  0.82186832  0.14641107  0.29182570    -0.02300
C1420       C  0.80680788  0.13518012  0.20900497     0.46700
H1421       H  0.80038594  0.12943283  0.18481413    -0.02300
C1422       C  0.78590291  0.14288718  0.25778652    -0.16000
C1423       C  0.84443807  0.17217803  0.25015401    -0.15800
C1424       C  0.81532807  0.11153574  0.25334377    -0.16200
C1425       C  0.77976387  0.13766593  0.22658032    -0.16100
C1426       C  0.84004948  0.16705121  0.21846728    -0.15700
C1427       C  0.80965898  0.10722497  0.22239497    -0.16000
C1428       C  0.64802516  0.30959643  0.25686331     0.46700
H1429       H  0.65060252  0.31023004  0.28150254    -0.02300
C1430       C  0.64667344  0.30600426  0.19840053     0.46700
H1431       H  0.64671128  0.30428474  0.17364723    -0.02300
C1432       C  0.67990317  0.33612459  0.24370928    -0.16000
C1433       C  0.64228405  0.27602675  0.24355218    -0.15800
C1434       C  0.62118218  0.31566501  0.24250308    -0.16200
C1435       C  0.67915344  0.33476061  0.21260805    -0.16100
C1436       C  0.64096988  0.27421640  0.21201019    -0.15700
C1437       C  0.61905320  0.31033827  0.21078593    -0.16000
C1438       C  0.97870422  0.31309552  0.12227594     0.04400
C1439       C  0.50615872  0.31072101  0.12929073    -0.11800
C1440       C  0.50247469  0.28124757  0.14058134     0.01900
C1441       C  0.97082193  0.25496243  0.14293688    -0.10300
C1442       C  0.94455898  0.26027538  0.14376628     0.04400
C1443       C  0.94809024  0.28892211  0.13212598    -0.09700
H1444       H  0.53004918  0.33187042  0.12558856     0.10000
H1445       H  0.96588086  0.23060062  0.14719850     0.07500
H1446       H  0.92725423  0.29219982  0.13019820     0.07300
C1447       C  0.83940156  0.47208047  0.12953756     0.04400
C1448       C  0.84026945  0.99823336  0.14469000    -0.11800
C1449       C  0.81222854  0.99621738  0.15802621     0.01900
C1450       C  0.78497494  0.46724930  0.15703392    -0.10300
C1451       C  0.78396416  0.43832531  0.14721379     0.04400
C1452       C  0.81089658  0.44105557  0.13209067    -0.09700
H1453       H  0.86337420  0.02131262  0.14515991     0.10000
H1454       H  0.76316758  0.46555970  0.16584724     0.07500
H1455       H  0.80951806  0.41924940  0.12183904     0.07300
C1456       C  0.49003759  0.33425676  0.34524730     0.04400
C1457       C  0.95961601  0.30697317  0.33495074    -0.11800
C1458       C  0.95833947  0.28548669  0.31155599     0.01900
C1459       C  0.48734407  0.29094282  0.29888195    -0.10300
C1460       C  0.51767756  0.31785601  0.30881667     0.04400
C1461       C  0.51891593  0.33930063  0.33214751    -0.09700
H1462       H  0.93714841  0.30330155  0.34440166     0.10000
H1463       H  0.98636676  0.27425392  0.28071365     0.07500
H1464       H  0.54227595  0.36058446  0.33944337     0.07300
C1465       C  0.84161773  0.47766238  0.34137698     0.04400
C1466       C  0.84571208  0.00805910  0.33046367    -0.11800
C1467       C  0.82358084  0.00761803  0.30942624     0.01900
C1468       C  0.79694130  0.47742378  0.29988561    -0.10300
C1469       C  0.79044950  0.44695683  0.31062762     0.04400
C1470       C  0.81292740  0.44762807  0.33239032    -0.09700
H1471       H  0.86665390  0.03145525  0.33842285     0.10000
H1472       H  0.78039300  0.47850075  0.28373469     0.07500
H1473       H  0.80810182  0.42534356  0.34300917     0.07300
C1474       C  0.63546343  0.13152746  0.34510187     0.04400
C1475       C  0.66452909  0.13334173  0.33569538    -0.11800
C1476       C  0.68926131  0.16167943  0.32185113     0.01900
C1477       C  0.68360926  0.18790046  0.31877853    -0.10300
C1478       C  0.65200787  0.18299644  0.32113299     0.04400
C1479       C  0.62827654  0.15532486  0.33577698    -0.09700
H1480       H  0.66751293  0.11252542  0.33936260     0.10000
H1481       H  0.70270452  0.21161769  0.31181038     0.07500
H1482       H  0.60433521  0.15197491  0.33945286     0.07300
O1483       O  0.55410146  0.45897430  0.50747702    -0.79700
O1484       O  0.95751616  0.47878822  0.42554601    -0.64300
O1485       O  0.52074754  0.49020935  0.48642216    -1.10900
C1486       C  0.92748964  0.41380156  0.53844437     1.07200
O1487       O  0.92601755  0.48293842  0.45920170    -0.77600
O1488       O  0.94387577  0.49260151  0.51777900    -0.65100
Ni1489     Ni  0.55693317  0.48589015  0.47439572     1.34900
C1490       C  0.97020064  0.00587366  0.53584741     0.86000
O1491       O  0.52179817  0.02149459  0.43109129    -0.78100
O1492       O  0.56516838  0.01595108  0.43955560    -0.88400
C1493       C  0.93306516  0.48130269  0.43181709     0.85500
O1494       O  0.53253283  0.44650876  0.44961453    -0.66600
O1495       O  0.91255952  0.42522843  0.52371624    -0.85900
C1496       C  0.50829994  0.43750805  0.43151112     0.86400
C1497       C  0.55121308  0.02945739  0.42652792     1.07900
H1498       H  0.95074982  0.43024482  0.47024197     0.39700
O1499       O  0.95893488  0.45173167  0.48014219    -1.08500
O1500       O  0.98766687  0.49163872  0.53510302    -0.65200
Ni1501     Ni  0.98984447  0.45753498  0.51142920     1.26300
O1502       O  0.99217044  0.45181867  0.43036203    -0.65400
O1503       O  0.95769446  0.42379667  0.53556184    -0.77700
C1504       C  0.54545932  0.45872273  0.53465857     0.85800
O1505       O  0.52199947  0.46302864  0.54098921    -0.64900
Ni1506     Ni  0.92165193  0.45446944  0.49116499     1.27400
Ni1507     Ni  0.98990349  0.48499370  0.45506257     1.26100
H1508       H  0.52989494  0.01365608  0.49568839     0.40300
O1509       O  0.97370402  0.39440261  0.00782892    -0.79700
O1510       O  0.99342474  0.00392187  0.92692191    -0.64300
O1511       O  0.50793648  0.45816001  0.98787867    -1.10900
C1512       C  0.93384429  0.47958998  0.04158504     1.07200
O1513       O  0.00660385  0.04201595  0.96279694    -0.77600
O1514       O  0.51214281  0.03643097  0.02251426    -0.65100
Ni1515     Ni  0.50448879  0.41706318  0.97698278     1.34900
C1516       C  0.52213768  0.02182425  0.03912458     0.86000
O1517       O  0.53447275  0.48088057  0.93017917    -0.78100
O1518       O  0.53521820  0.43619470  0.94515088    -0.88400
C1519       C  0.99954119  0.03261143  0.93505692     0.85500
O1520       O  0.96842179  0.40006607  0.94853237    -0.66600
O1521       O  0.94607202  0.00236557  0.02686405    -0.85900
C1522       C  0.95601053  0.41337200  0.93309374     0.86400
C1523       C  0.54489970  0.46074960  0.92830735     1.07900
H1524       H  0.94984809  0.46984914  0.97393921     0.39700
O1525       O  0.97138142  0.48261918  0.98317091    -1.08500
O1526       O  0.50909448  0.49358031  0.03871532    -0.65200
Ni1527     Ni  0.97507100  0.45717428  0.01396179     1.26300
O1528       O  0.96707971  0.44427484  0.93429241    -0.65400
O1529       O  0.94177704  0.45759775  0.03832375    -0.77700
C1530       C  0.97718620  0.40318479  0.03573703     0.85800
O1531       O  0.97986609  0.43055407  0.04329211    -0.64900
Ni1532     Ni  0.97626052  0.02082233  0.99452899     1.27400
Ni1533     Ni  0.00255956  0.48208736  0.95627223     1.26100
H1534       H  0.52912872  0.47196996  0.99721455     0.40300
C1535       C  0.98683437  0.11199759  0.61794844     0.04400
C1536       C  0.51677557  0.14120455  0.62361155    -0.11800
C1537       C  0.51895548  0.16591246  0.64372092     0.01900
C1538       C  0.98999176  0.16260431  0.65476648    -0.10300
C1539       C  0.95997551  0.13234398  0.65184649     0.04400
C1540       C  0.95895498  0.10693450  0.63336800    -0.09700
H1541       H  0.53866809  0.14417794  0.61343510     0.10000
H1542       H  0.99135074  0.18298300  0.66790158     0.07500
H1543       H  0.93690204  0.08292056  0.63123130     0.07300
C1544       C  0.99049792  0.11828151  0.84782959     0.04400
C1545       C  0.51857848  0.14502466  0.83593682    -0.11800
C1546       C  0.51584510  0.16229179  0.81161087     0.01900
C1547       C  0.98395408  0.15319398  0.80115926    -0.10300
C1548       C  0.95598001  0.12877619  0.81482335     0.04400
C1549       C  0.95921758  0.11072457  0.83772808    -0.09700
H1550       H  0.54234148  0.15188096  0.84558576     0.10000
H1551       H  0.98048052  0.16547899  0.78255843     0.07500
H1552       H  0.93757847  0.09090068  0.84758570     0.07300
C1553       C  0.82501355  0.13178056  0.70393403     0.46700
H1554       H  0.82889169  0.13263182  0.67958281    -0.02300
C1555       C  0.82223862  0.13474258  0.76227974     0.46700
H1556       H  0.82189262  0.13633706  0.78710939    -0.02300
C1557       C  0.85190646  0.12811714  0.72072167    -0.16000
C1558       C  0.82949176  0.16445573  0.71586127    -0.15800
C1559       C  0.79050167  0.10524822  0.71552196    -0.16200
C1560       C  0.84962139  0.12886201  0.75196039    -0.16100
C1561       C  0.82785562  0.16652701  0.74683528    -0.15700
C1562       C  0.79064271  0.10523424  0.74738019    -0.16000
C1563       C  0.66101206  0.29920540  0.70764482     0.46700
H1564       H  0.66093461  0.30221395  0.68321037    -0.02300
C1565       C  0.65686180  0.29375758  0.76570364     0.46700
H1566       H  0.65417793  0.29174423  0.79038525    -0.02300
C1567       C  0.66151912  0.32893001  0.72493168    -0.16000
C1568       C  0.62940996  0.26849897  0.71629599    -0.15800
C1569       C  0.68897384  0.29479282  0.72189217    -0.16200
C1570       C  0.65972286  0.32587854  0.75607567    -0.16100
C1571       C  0.62716581  0.26504909  0.74711903    -0.15700
C1572       C  0.68834370  0.29577334  0.75378826    -0.16000
C1573       C  0.63484616  0.45432842  0.62214278     0.04400
C1574       C  0.66246721  0.48576720  0.62824035    -0.11800
C1575       C  0.68722508  0.49009449  0.64853263     0.01900
C1576       C  0.68570332  0.46285434  0.66146745    -0.10300
C1577       C  0.65878061  0.43119239  0.65536355     0.04400
C1578       C  0.63305933  0.42687191  0.63584228    -0.09700
H1579       H  0.66452833  0.00957893  0.61887992     0.10000
H1580       H  0.70478311  0.46651998  0.67760185     0.07500
H1581       H  0.61170892  0.40250913  0.63174198     0.07300
C1582       C  0.84456085  0.31785470  0.62473640     0.04400
C1583       C  0.81913925  0.32042451  0.63827422    -0.11800
C1584       C  0.79843212  0.29682228  0.65874214     0.01900
C1585       C  0.80389386  0.27125069  0.66524604    -0.10300
C1586       C  0.82875931  0.26808087  0.65200420     0.04400
C1587       C  0.84898863  0.29147784  0.63144423    -0.09700
H1588       H  0.81560333  0.34058812  0.63289648     0.10000
H1589       H  0.78794626  0.25289337  0.68078769     0.07500
H1590       H  0.86768790  0.28896990  0.62012979     0.07300
C1591       C  0.84882785  0.32281748  0.85023077     0.04400
C1592       C  0.85019533  0.29637151  0.83631968    -0.11800
C1593       C  0.82668576  0.27562570  0.81380143     0.01900
C1594       C  0.80144554  0.28150940  0.80616856    -0.10300
C1595       C  0.79906354  0.30692995  0.82055106     0.04400
C1596       C  0.82303220  0.32788245  0.84244611    -0.09700
H1597       H  0.86979853  0.29230697  0.84283849     0.10000
H1598       H  0.78346502  0.26639080  0.78847672     0.07500
H1599       H  0.82195579  0.34828777  0.85297171     0.07300
C1600       C  0.64687965  0.46699288  0.85160908     0.04400
C1601       C  0.64974230  0.43863296  0.84961536    -0.11800
C1602       C  0.67128305  0.43631573  0.82910313     0.01900
C1603       C  0.69247196  0.46505576  0.81387008    -0.10300
C1604       C  0.69132181  0.49402058  0.81606606     0.04400
C1605       C  0.66760861  0.49443584  0.83453788    -0.09700
H1606       H  0.63498883  0.41889217  0.86427428     0.10000
H1607       H  0.70982628  0.46501089  0.79867572     0.07500
H1608       H  0.66487367  0.01484757  0.83454636     0.07300
C1609       C  0.77198553  0.31184436  0.81029379    -0.04100
C1610       C  0.74003342  0.29093797  0.81993847    -0.01200
C1611       C  0.71277298  0.28769834  0.80338987     0.03800
C1612       C  0.71720694  0.30465636  0.77589369    -0.04100
C1613       C  0.74999752  0.32958224  0.76950602    -0.01200
C1614       C  0.77697845  0.33290451  0.78661229     0.03800
C1615       C  0.73524783  0.27197960  0.84668698     0.38400
C1616       C  0.75725836  0.35025666  0.74382265     0.38400
C1617       C  0.81029719  0.35692761  0.77891112     0.36800
C1618       C  0.68072386  0.26585047  0.81501224     0.36800
N1619       N  0.83694856  0.37604314  0.77306504    -0.38000
N1620       N  0.65580724  0.24911902  0.82594106    -0.38000
N1621       N  0.76539115  0.36662911  0.72300885    -0.37400
N1622       N  0.73125849  0.25695995  0.86810175    -0.37400
C1623       C  0.77013624  0.29692374  0.67362471    -0.04100
C1624       C  0.76531808  0.29063725  0.70479778    -0.01200
C1625       C  0.73483224  0.28091653  0.71728249     0.03800
C1626       C  0.71289089  0.28864597  0.70300501    -0.04100
C1627       C  0.71546627  0.29070176  0.67067723    -0.01200
C1628       C  0.74406664  0.29516155  0.65630750     0.03800
C1629       C  0.79152315  0.29324372  0.72410413     0.38400
C1630       C  0.68753932  0.28264795  0.65103658     0.38400
C1631       C  0.74564924  0.29598906  0.62347073     0.36800
C1632       C  0.72418512  0.25689203  0.74053835     0.36800
N1633       N  0.74641867  0.29647003  0.59725637    -0.38000
N1634       N  0.71726148  0.23740958  0.75868691    -0.38000
N1635       N  0.66572329  0.27587022  0.63444899    -0.37400
N1636       N  0.81307316  0.29559396  0.73862931    -0.37400
C1637       C  0.66433352  0.35215608  0.77978063    -0.04100
C1638       C  0.64100239  0.34587318  0.80239591    -0.01200
C1639       C  0.64200803  0.37249180  0.81932931     0.03800
C1640       C  0.67067028  0.40446215  0.81979511    -0.04100
C1641       C  0.69808757  0.40644785  0.80530565    -0.01200
C1642       C  0.69339134  0.38335538  0.78182365     0.03800
C1643       C  0.61550679  0.31271447  0.80857521     0.38400
C1644       C  0.73128600  0.43129630  0.81508907     0.38400
C1645       C  0.71810548  0.39341676  0.75929883     0.36800
C1646       C  0.61295892  0.36590815  0.83521825     0.36800
N1647       N  0.73788812  0.40382087  0.74117159    -0.38000
N1648       N  0.58925805  0.35954803  0.84761563    -0.38000
N1649       N  0.75782375  0.45107833  0.82265649    -0.37400
N1650       N  0.59546399  0.28711739  0.81616648    -0.37400
C1651       C  0.66132781  0.35633987  0.70791436    -0.04100
C1652       C  0.68210961  0.37043123  0.68296869    -0.01200
C1653       C  0.67956267  0.39308364  0.66471278     0.03800
C1654       C  0.65746494  0.40347779  0.67166680    -0.04100
C1655       C  0.63725916  0.39051349  0.69662222    -0.01200
C1656       C  0.63861613  0.36676318  0.71431062     0.03800
C1657       C  0.70744519  0.36324997  0.67600640     0.38400
C1658       C  0.61500785  0.40189551  0.70430666     0.38400
C1659       C  0.61458465  0.35220496  0.73746491     0.36800
C1660       C  0.69973874  0.40570086  0.63834432     0.36800
N1661       N  0.59460695  0.34243823  0.75545583    -0.38000
N1662       N  0.71571918  0.41548889  0.61726503    -0.38000
N1663       N  0.59727445  0.41087709  0.71061169    -0.37400
N1664       N  0.72831575  0.35905212  0.66881294    -0.37400
C1665       C  0.83055403  0.18899750  0.69452250    -0.04100
C1666       C  0.86064332  0.21584898  0.68561753    -0.01200
C1667       C  0.86125669  0.24230791  0.67086455     0.03800
C1668       C  0.83155319  0.23911134  0.66019436    -0.04100
C1669       C  0.80248895  0.20815107  0.66183683    -0.01200
C1670       C  0.80141601  0.18450084  0.68101934     0.03800
C1671       C  0.89045573  0.21502706  0.68901346     0.38400
C1672       C  0.77316680  0.20105391  0.64458128     0.38400
C1673       C  0.76975777  0.15617413  0.68647399     0.36800
C1674       C  0.89223837  0.27263667  0.66770297     0.36800
N1675       N  0.74314589  0.13486445  0.68913662    -0.38000
N1676       N  0.91718376  0.29669632  0.66530459    -0.38000
N1677       N  0.74970606  0.19530879  0.63106077    -0.37400
N1678       N  0.91442271  0.21444840  0.69035011    -0.37400
C1679       C  0.82827524  0.19514934  0.76370593    -0.04100
C1680       C  0.85756866  0.22593320  0.76939931    -0.01200
C1681       C  0.85706323  0.25259909  0.78453445     0.03800
C1682       C  0.82802888  0.24780381  0.79767236    -0.04100
C1683       C  0.79924290  0.21657330  0.79321092    -0.01200
C1684       C  0.79892208  0.19214407  0.77383833     0.03800
C1685       C  0.88871873  0.23098964  0.76022187     0.38400
C1686       C  0.76949257  0.20904648  0.80857041     0.38400
C1687       C  0.76758778  0.16628185  0.76192525     0.36800
C1688       C  0.88623523  0.28523706  0.78522912     0.36800
N1689       N  0.74120147  0.14807770  0.75306421    -0.38000
N1690       N  0.90956030  0.31119433  0.78542664    -0.38000
N1691       N  0.74566720  0.20283385  0.82063349    -0.37400
N1692       N  0.91479296  0.23737164  0.75414258    -0.37400
C1693       C  0.76034436  0.08314264  0.69413258    -0.04100
C1694       C  0.76328900  0.07719399  0.66263955    -0.01200
C1695       C  0.74009940  0.04696218  0.64778319     0.03800
C1696       C  0.71129524  0.02527881  0.66224253    -0.04100
C1697       C  0.70389711  0.03562365  0.68954558    -0.01200
C1698       C  0.72758915  0.06527607  0.70472208     0.03800
C1699       C  0.78546925  0.10313163  0.64346804     0.38400
C1700       C  0.67204494  0.01505085  0.70254043     0.38400
C1701       C  0.71647803  0.07648001  0.73024238     0.36800
C1702       C  0.74579238  0.03810081  0.61763704     0.36800
N1703       N  0.70456763  0.08206570  0.75046464    -0.38000
N1704       N  0.75021858  0.03076377  0.59366506    -0.38000
N1705       N  0.64597908  0.50143569  0.71016307    -0.37400
N1706       N  0.80232904  0.12341740  0.62726342    -0.37400
C1707       C  0.71689406  0.02309600  0.79963588    -0.04100
C1708       C  0.72503449  0.01800372  0.76998449    -0.01200
C1709       C  0.75256256  0.04341643  0.75605340     0.03800
C1710       C  0.76661921  0.07683041  0.76671186    -0.04100
C1711       C  0.75685193  0.08223355  0.79587229    -0.01200
C1712       C  0.73451866  0.05529101  0.81298588     0.03800
C1713       C  0.70140305  0.48707502  0.75101654     0.38400
C1714       C  0.76873802  0.11491337  0.80928394     0.38400
C1715       C  0.73150060  0.06090949  0.84497655     0.36800
C1716       C  0.76548815  0.03417815  0.73058367     0.36800
N1717       N  0.73039479  0.06637842  0.87053996    -0.38000
N1718       N  0.77413967  0.02517149  0.71005319    -0.38000
N1719       N  0.77776547  0.14015499  0.82176703    -0.37400
N1720       N  0.68382785  0.46267980  0.73752413    -0.37400
C1721       C  0.87059228  0.12319006  0.77426509    -0.04100
C1722       C  0.87670313  0.09711213  0.76885477    -0.01200
C1723       C  0.90348571  0.09760557  0.78357593     0.03800
C1724       C  0.92354342  0.12330205  0.80477937    -0.04100
C1725       C  0.91455502  0.14635162  0.81371373    -0.01200
C1726       C  0.88763437  0.14581040  0.79921471     0.03800
C1727       C  0.85580190  0.06967924  0.74804229     0.38400
C1728       C  0.93436540  0.17198215  0.83667604     0.38400
C1729       C  0.87938928  0.16999659  0.80931252     0.36800
C1730       C  0.91148686  0.07262321  0.77572452     0.36800
N1731       N  0.87291812  0.18898943  0.81870754    -0.38000
N1732       N  0.91785013  0.05267473  0.76946174    -0.38000
N1733       N  0.95026838  0.19253830  0.85483169    -0.37400
N1734       N  0.83985915  0.04723799  0.73164330    -0.37400
C1735       C  0.54540477  0.18896722  0.79607011    -0.04100
C1736       C  0.57265969  0.18566109  0.78904388    -0.01200
C1737       C  0.59938516  0.21049144  0.77343424     0.03800
C1738       C  0.59815219  0.23733495  0.76188172    -0.04100
C1739       C  0.56941663  0.23840293  0.76577728    -0.01200
C1740       C  0.54536830  0.21702193  0.78561344     0.03800
C1741       C  0.57370496  0.15675740  0.79723801     0.38400
C1742       C  0.56350590  0.26059110  0.74880800     0.38400
C1743       C  0.52240247  0.22595749  0.79710191     0.36800
C1744       C  0.62747272  0.20717424  0.76843470     0.36800
N1745       N  0.00410330  0.23321553  0.80630536    -0.38000
N1746       N  0.64919785  0.20306718  0.76551773    -0.38000
N1747       N  0.55671814  0.27655967  0.73473258    -0.37400
N1748       N  0.57546003  0.13421513  0.80381939    -0.37400
C1749       C  0.87932882  0.12713952  0.70381940    -0.04100
C1750       C  0.87261273  0.10720971  0.67676296    -0.01200
C1751       C  0.89837370  0.10998136  0.65874013     0.03800
C1752       C  0.93119760  0.12759140  0.67022957    -0.04100
C1753       C  0.93691155  0.14228952  0.69985612    -0.01200
C1754       C  0.91267741  0.14609596  0.71412911     0.03800
C1755       C  0.83961829  0.08158033  0.66805876     0.38400
C1756       C  0.96794136  0.15356795  0.71599665     0.38400
C1757       C  0.92402238  0.17175521  0.73777120     0.36800
C1758       C  0.89050088  0.09495848  0.62826405     0.36800
N1759       N  0.93582514  0.19289254  0.75619974    -0.38000
N1760       N  0.88384422  0.08278390  0.60401379    -0.38000
N1761       N  0.99322921  0.16275072  0.72770622    -0.37400
N1762       N  0.81435305  0.05962887  0.65999856    -0.37400
C1763       C  0.55123413  0.19371409  0.65654599    -0.04100
C1764       C  0.57409935  0.18739283  0.67102179    -0.01200
C1765       C  0.60156432  0.21297866  0.68756221     0.03800
C1766       C  0.60463767  0.24402080  0.69292235    -0.04100
C1767       C  0.58447749  0.25150161  0.67522477    -0.01200
C1768       C  0.55806492  0.22655035  0.65707430     0.03800
C1769       C  0.56912571  0.15444907  0.66997508     0.38400
C1770       C  0.59117724  0.28488870  0.67424098     0.38400
C1771       C  0.53801704  0.23476727  0.63859810     0.36800
C1772       C  0.62863487  0.20863866  0.69551000     0.36800
N1773       N  0.52202149  0.24128583  0.62385973    -0.38000
N1774       N  0.65062443  0.20519242  0.70016392    -0.38000
N1775       N  0.59517996  0.31094048  0.67172151    -0.37400
N1776       N  0.56524181  0.12819132  0.66912078    -0.37400
C1777       C  0.87564366  0.34644465  0.87176229    -0.04100
C1778       C  0.87490800  0.33985021  0.90283720    -0.01200
C1779       C  0.90038677  0.36250147  0.92313161     0.03800
C1780       C  0.92744251  0.39143569  0.91232719    -0.04100
C1781       C  0.92796257  0.39803385  0.88120069    -0.01200
C1782       C  0.90227130  0.37558672  0.86102792     0.03800
C1783       C  0.84824580  0.30939912  0.91384252     0.38400
C1784       C  0.95556736  0.42720057  0.86947315     0.38400
C1785       C  0.90391073  0.38185994  0.82889042     0.36800
C1786       C  0.89803189  0.35666909  0.95537776     0.36800
N1787       N  0.90553491  0.38688918  0.80325477    -0.38000
N1788       N  0.89587329  0.35223202  0.98113971    -0.38000
N1789       N  0.97759565  0.45021680  0.85974558    -0.37400
N1790       N  0.82719789  0.28499270  0.92270232    -0.37400
C1791       C  0.57044126  0.46586652  0.90610977    -0.04100
C1792       C  0.56230648  0.44443132  0.88012443    -0.01200
C1793       C  0.58717686  0.44599640  0.86165414     0.03800
C1794       C  0.62061439  0.46715523  0.87018424    -0.04100
C1795       C  0.62867632  0.48828301  0.89640186    -0.01200
C1796       C  0.60377876  0.48853968  0.91350236     0.03800
C1797       C  0.52837715  0.41982139  0.87283737     0.38400
C1798       C  0.66240529  0.50784351  0.90734356     0.38400
C1799       C  0.61245353  0.51124582  0.93961084     0.36800
C1800       C  0.57830018  0.42580426  0.83372649     0.36800
N1801       N  0.61510692  0.02878156  0.95636507    -0.38000
N1802       N  0.57124593  0.40989526  0.81132642    -0.38000
N1803       N  0.68672448  0.02472899  0.91458289    -0.37400
N1804       N  0.00202958  0.39924743  0.86712118    -0.37400
C1805       C  0.99395347  0.09729331  0.87029133    -0.04100
C1806       C  0.50232440  0.07387572  0.86060510    -0.01200
C1807       C  0.50545204  0.05369551  0.88174365     0.03800
C1808       C  0.99858567  0.05550091  0.91269249    -0.04100
C1809       C  0.99019695  0.07921870  0.92225238    -0.01200
C1810       C  0.98846362  0.10024354  0.90120364     0.03800
C1811       C  0.50721906  0.07028482  0.82860962     0.38400
C1812       C  0.98268794  0.08194799  0.95365189     0.38400
C1813       C  0.98145449  0.12539542  0.91135119     0.36800
C1814       C  0.51768451  0.03268486  0.87161897     0.36800
N1815       N  0.97612745  0.14568104  0.91926993    -0.38000
N1816       N  0.52810340  0.01654600  0.86335937    -0.38000
N1817       N  0.97686762  0.08418099  0.97872973    -0.37400
N1818       N  0.51086206  0.06739412  0.80303173    -0.37400
C1819       C  0.90788609  0.38726558  0.55975779    -0.04100
C1820       C  0.87544517  0.36239279  0.55113825    -0.01200
C1821       C  0.85471657  0.34011157  0.57247794     0.03800
C1822       C  0.86625933  0.34207916  0.60254511    -0.04100
C1823       C  0.89934104  0.36529266  0.61059779    -0.01200
C1824       C  0.92035995  0.38721066  0.58905827     0.03800
C1825       C  0.86403573  0.35818906  0.51966813     0.38400
C1826       C  0.91164669  0.36715328  0.64131036     0.38400
C1827       C  0.95478082  0.40917208  0.59712674     0.36800
C1828       C  0.82175059  0.31449002  0.56311270     0.36800
N1829       N  0.98228047  0.42633303  0.60361146    -0.38000
N1830       N  0.79560956  0.29405104  0.55519055    -0.38000
N1831       N  0.92164032  0.36898095  0.66581101    -0.37400
N1832       N  0.85516367  0.35461254  0.49450837    -0.37400
C1833       C  0.97855453  0.03413765  0.55725729    -0.04100
C1834       C  0.97243764  0.02879803  0.58840025    -0.01200
C1835       C  0.97662803  0.05463760  0.60840366     0.03800
C1836       C  0.98494686  0.08552825  0.59711540    -0.04100
C1837       C  0.99082590  0.09082092  0.56580282    -0.01200
C1838       C  0.98888065  0.06560105  0.54620384     0.03800
C1839       C  0.45968341  0.99599983  0.59938048     0.38400
C1840       C  0.99657202  0.12129522  0.55331225     0.38400
C1841       C  0.99766507  0.07201610  0.51468807     0.36800
C1842       C  0.47145099  0.04902280  0.64038285     0.36800
N1843       N  0.00515435  0.07726485  0.48967446    -0.38000
N1844       N  0.46758537  0.04481064  0.66609318    -0.38000
N1845       N  0.00053056  0.14530308  0.54315783    -0.37400
N1846       N  0.44791117  0.46879318  0.60869709    -0.37400
C1847       C  0.56382306  0.45336307  0.55924308    -0.04100
C1848       C  0.57259306  0.47245333  0.58680983    -0.01200
C1849       C  0.59344441  0.47040172  0.60847260     0.03800
C1850       C  0.60781415  0.45115093  0.60196944    -0.04100
C1851       C  0.59885575  0.43187460  0.57452152    -0.01200
C1852       C  0.57591876  0.43188018  0.55391496     0.03800
C1853       C  0.56284863  0.49666709  0.59187742     0.38400
C1854       C  0.61554779  0.41454959  0.56596124     0.38400
C1855       C  0.56539348  0.41021174  0.52681799     0.36800
C1856       C  0.60116009  0.48955709  0.63692027     0.36800
N1857       N  0.55694864  0.39300316  0.50517681    -0.38000
N1858       N  0.60705195  0.50540582  0.65921773    -0.38000
N1859       N  0.62925777  0.40124486  0.55875135    -0.37400
N1860       N  0.55560408  0.51636382  0.59581614    -0.37400
C1861       C  0.61320654  0.10539668  0.36570564    -0.04100
C1862       C  0.58117480  0.08081326  0.35594685    -0.01200
C1863       C  0.55970770  0.05759101  0.37647772     0.03800
C1864       C  0.57127616  0.05667880  0.40595038    -0.04100
C1865       C  0.60286694  0.08212478  0.41603826    -0.01200
C1866       C  0.62350399  0.10659121  0.39617987     0.03800
C1867       C  0.57066226  0.07884875  0.32454565     0.34000
C1868       C  0.61309214  0.08466290  0.44769822     0.38400
C1869       C  0.65481060  0.13388891  0.40759494     0.36800
C1870       C  0.52555655  0.03565724  0.36757652     0.36800
N1871       N  0.67955784  0.15578639  0.41694966    -0.38000
N1872       N  0.99811423  0.01932620  0.36182599    -0.38000
N1873       N  0.62077559  0.08668404  0.47306189    -0.37400
N1874       N  0.56249946  0.07712189  0.29937591    -0.37400
C1875       C  0.86568501  0.47903994  0.36402200    -0.04100
C1876       C  0.88397205  0.46394989  0.35727740    -0.01200
C1877       C  0.90618108  0.46464399  0.37920538     0.03800
C1878       C  0.91226032  0.48286706  0.40717448    -0.04100
C1879       C  0.89358245  0.00141790  0.41423152    -0.01200
C1880       C  0.86978046  0.99831691  0.39290722     0.03800
C1881       C  0.88121067  0.44917890  0.32720614     0.38400
C1882       C  0.89995633  0.02187044  0.44171366     0.38400
C1883       C  0.85089029  0.01385128  0.39966287     0.36800
C1884       C  0.92153824  0.44541022  0.37318111     0.36800
N1885       N  0.83603470  0.02644659  0.40495429    -0.38000
N1886       N  0.93353257  0.42984960  0.36832496    -0.38000
N1887       N  0.90482013  0.03811783  0.46359766    -0.37400
N1888       N  0.87963943  0.43802295  0.30305758    -0.37400
C1889       C  0.49175504  0.35959044  0.36728737    -0.04100
C1890       C  0.98422143  0.35238384  0.39810787    -0.01200
C1891       C  0.98731331  0.37738269  0.41877271     0.03800
C1892       C  0.49988257  0.40998805  0.40922217    -0.04100
C1893       C  0.50708965  0.41677186  0.37842460    -0.01200
C1894       C  0.50229521  0.39154102  0.35742719     0.03800
C1895       C  0.97549182  0.32031480  0.40888667     0.38400
C1896       C  0.52115760  0.45012297  0.36844720     0.38400
C1897       C  0.50889574  0.39864395  0.32561580     0.36800
C1898       C  0.97673514  0.36969792  0.44970180     0.36800
N1899       N  0.51421779  0.40414940  0.30025032    -0.38000
N1900       N  0.96771521  0.36358315  0.47422680    -0.38000
N1901       N  0.53287097  0.47661592  0.36002283    -0.37400
N1902       N  0.96908364  0.29487985  0.41751044    -0.37400
C1903       C  0.86483700  0.47509107  0.10811020    -0.04100
C1904       C  0.86703029  0.48902522  0.07976637    -0.01200
C1905       C  0.88842129  0.48921707  0.05777735     0.03800
C1906       C  0.90802264  0.47516081  0.06359746    -0.04100
C1907       C  0.90383840  0.45893857  0.09120580    -0.01200
C1908       C  0.88357531  0.46028898  0.11379274     0.03800
C1909       C  0.84623400  0.50219744  0.07262883     0.38400
C1910       C  0.91879909  0.93765292  0.09798675     0.38400
C1911       C  0.88285384  0.94636994  0.14459307     0.36800
C1912       C  0.88842465  0.50213610  0.02830521     0.36800
N1913       N  0.88414538  0.93742598  0.16841776    -0.38000
N1914       N  0.88824200  0.51233904  0.00481865    -0.38000
N1915       N  0.93054403  0.92192197  0.10246297    -0.37400
N1916       N  0.82957165  0.51252201  0.06668323    -0.37400
C1917       C  0.97695353  0.38036430  0.05901893    -0.04100
C1918       C  0.99045358  0.39195165  0.08905586    -0.01200
C1919       C  0.99115093  0.37013754  0.10999178     0.03800
C1920       C  0.98027134  0.33730323  0.10074824    -0.04100
C1921       C  0.96889612  0.32623994  0.07062193    -0.01200
C1922       C  0.96549665  0.34679062  0.05044249     0.03800
C1923       C  0.50473774  0.42631550  0.09877276     0.38400
C1924       C  0.96184381  0.29378685  0.05989683     0.38400
C1925       C  0.94963964  0.33244746  0.02098793     0.36800
C1926       C  0.50229696  0.38102933  0.14143941     0.36800
N1927       N  0.93703557  0.32071620  0.99757659    -0.38000
N1928       N  0.51153946  0.38953167  0.16635382    -0.38000
N1929       N  0.95684971  0.26827336  0.05104912    -0.37400
N1930       N  0.51682073  0.45376748  0.10670238    -0.37400
C1931       C  0.58893404  0.29886332  0.19014324    -0.04100
C1932       C  0.55752045  0.27488148  0.19982666    -0.01200
C1933       C  0.52955009  0.26373721  0.18076278     0.03800
C1934       C  0.53137883  0.27997501  0.15356758    -0.04100
C1935       C  0.56254535  0.29934658  0.14156674    -0.01200
C1936       C  0.59111663  0.30863660  0.15935856     0.03800
C1937       C  0.55265625  0.26131889  0.22966649     0.38400
C1938       C  0.56520227  0.30788337  0.10988654     0.38400
C1939       C  0.62189369  0.32813428  0.14463585     0.36800
C1940       C  0.50059074  0.23305275  0.18822449     0.36800
N1941       N  0.64520095  0.34212788  0.13062952    -0.38000
N1942       N  0.97885431  0.20833689  0.19481485    -0.38000
N1943       N  0.56753366  0.31479491  0.08470261    -0.37400
N1944       N  0.54655281  0.25040689  0.25345283    -0.37400
C1945       C  0.60055227  0.32638011  0.26132161    -0.04100
C1946       C  0.60023302  0.32634196  0.29382493    -0.01200
C1947       C  0.57279288  0.32262886  0.30933104     0.03800
C1948       C  0.54795533  0.32425163  0.29351681    -0.04100
C1949       C  0.55313575  0.33425455  0.26342382    -0.01200
C1950       C  0.57979890  0.33640656  0.24762296     0.03800
C1951       C  0.62922008  0.33568380  0.31238374     0.38400
C1952       C  0.53192470  0.34412118  0.24930135     0.38400
C1953       C  0.58685817  0.35253380  0.21903493     0.36800
C1954       C  0.57042036  0.31779668  0.34179760     0.36800
N1955       N  0.58995869  0.36553462  0.19645892    -0.38000
N1956       N  0.56839436  0.31415544  0.36769427    -0.38000
N1957       N  0.51529801  0.35232521  0.23810984    -0.37400
N1958       N  0.65192653  0.34349972  0.32810618    -0.37400
C1959       C  0.75572032  0.40619108  0.15664848    -0.04100
C1960       C  0.72406813  0.40169796  0.15578027    -0.01200
C1961       C  0.70117662  0.38191419  0.17706195     0.03800
C1962       C  0.70585482  0.35955300  0.19365980    -0.04100
C1963       C  0.73549586  0.35994822  0.19055541    -0.01200
C1964       C  0.76098771  0.38434855  0.17369242     0.03800
C1965       C  0.71566755  0.41887718  0.13400285     0.38400
C1966       C  0.74021466  0.33521181  0.20406875     0.38400
C1967       C  0.79270617  0.38719715  0.17519811     0.36800
C1968       C  0.67533298  0.38818388  0.18397633     0.36800
N1969       N  0.81753705  0.38842021  0.17697560    -0.38000
N1970       N  0.65604663  0.39551943  0.18846652    -0.38000
N1971       N  0.74568092  0.31598792  0.21354997    -0.37400
N1972       N  0.70921194  0.43270224  0.11664228    -0.37400
C1973       C  0.75999704  0.41557142  0.29862074    -0.04100
C1974       C  0.75969615  0.38590450  0.29128386    -0.01200
C1975       C  0.73188207  0.35885070  0.27635013     0.03800
C1976       C  0.70690488  0.36287979  0.26361925    -0.04100
C1977       C  0.70599456  0.39123645  0.27257966    -0.01200
C1978       C  0.73083122  0.41583142  0.29210365     0.03800
C1979       C  0.78756165  0.38252580  0.29836842     0.38400
C1980       C  0.67901483  0.39503481  0.26287102     0.38400
C1981       C  0.72511615  0.44022052  0.30681018     0.36800
C1982       C  0.72793505  0.32639015  0.27634245     0.36800
N1983       N  0.71988330  0.45922484  0.31843406    -0.38000
N1984       N  0.72497647  0.30060298  0.27751598    -0.38000
N1985       N  0.65801767  0.39926633  0.25589225    -0.37400
N1986       N  0.80931512  0.37895343  0.30393703    -0.37400
C1987       C  0.64182861  0.25015187  0.26379102    -0.04100
C1988       C  0.65662851  0.23187193  0.25476127    -0.01200
C1989       C  0.65114052  0.20465530  0.27097161     0.03800
C1990       C  0.64343776  0.20300291  0.30167428    -0.04100
C1991       C  0.63007367  0.22175160  0.31241267    -0.01200
C1992       C  0.62609311  0.24253035  0.29232623     0.03800
C1993       C  0.68016611  0.24183698  0.23111457     0.38400
C1994       C  0.61952001  0.21896810  0.34342646     0.38400
C1995       C  0.60325595  0.25270623  0.30042504     0.36800
C1996       C  0.65113022  0.17705190  0.25567088     0.36800
N1997       N  0.58366286  0.25861252  0.30815078    -0.38000
N1998       N  0.65014011  0.15430607  0.24398186    -0.38000
N1999       N  0.61106339  0.21684459  0.36818792    -0.37400
N2000       N  0.69943702  0.24843898  0.21271586    -0.37400
C2001       C  0.87167457  0.20236101  0.26823158    -0.04100
C2002       C  0.88808374  0.19824135  0.29366164    -0.01200
C2003       C  0.91519970  0.22568620  0.30874239     0.03800
C2004       C  0.92660254  0.25766236  0.29917516    -0.04100
C2005       C  0.91006223  0.26257893  0.27527288    -0.01200
C2006       C  0.88278998  0.23540317  0.25996257     0.03800
C2007       C  0.88030791  0.16600853  0.30308867     0.38400
C2008       C  0.92251225  0.29587862  0.26530032     0.38400
C2009       C  0.86908513  0.24272639  0.23411640     0.36800
C2010       C  0.93281718  0.22094208  0.33331043     0.36800
N2011       N  0.86147599  0.25156406  0.21309588    -0.38000
N2012       N  0.94698993  0.21715101  0.35271527    -0.38000
N2013       N  0.93258499  0.32237530  0.25730476    -0.37400
N2014       N  0.87549599  0.14126598  0.31213847    -0.37400
C2015       C  0.86629791  0.18767840  0.19602555    -0.04100
C2016       C  0.85972080  0.19279156  0.16537134    -0.01200
C2017       C  0.88465644  0.21829214  0.14875497     0.03800
C2018       C  0.91621069  0.23790783  0.16181675    -0.04100
C2019       C  0.92261305  0.23233888  0.19148913    -0.01200
C2020       C  0.89966437  0.20427740  0.20582488     0.03800
C2021       C  0.83002432  0.16978442  0.14825563     0.38400
C2022       C  0.95245788  0.25637652  0.20798798     0.38400
C2023       C  0.91206700  0.19119047  0.22813974     0.36800
C2024       C  0.87774885  0.22463600  0.11836686     0.36800
N2025       N  0.92384321  0.18231992  0.24566816    -0.38000
N2026       N  0.87199228  0.23000925  0.09437196    -0.38000
N2027       N  0.97610563  0.27582539  0.22113113    -0.37400
N2028       N  0.80706904  0.15198872  0.13327070    -0.37400
C2029       C  0.76782854  0.15395263  0.27914266    -0.04100
C2030       C  0.75975523  0.17677673  0.26912040    -0.01200
C2031       C  0.73408161  0.17910889  0.28190894     0.03800
C2032       C  0.71938344  0.16274848  0.30896581    -0.04100
C2033       C  0.73513551  0.14832963  0.32414326    -0.01200
C2034       C  0.75974431  0.14462522  0.30968771     0.03800
C2035       C  0.78270127  0.20364075  0.25122961     0.38400
C2036       C  0.72861496  0.14035415  0.35578352     0.38400
C2037       C  0.78014046  0.13751998  0.32865829     0.36800
C2038       C  0.72628999  0.20126908  0.26754685     0.36800
N2039       N  0.79632280  0.13274952  0.34503225    -0.38000
N2040       N  0.72349132  0.22102994  0.25549797    -0.38000
N2041       N  0.72369969  0.13409851  0.38105879    -0.37400
N2042       N  0.80000652  0.22735860  0.23889330    -0.37400
C2043       C  0.82155234  0.08886308  0.27161241    -0.04100
C2044       C  0.80020807  0.07084224  0.29489239    -0.01200
C2045       C  0.80401355  0.04724397  0.31003058     0.03800
C2046       C  0.82653371  0.03862164  0.29980707    -0.04100
C2047       C  0.84895445  0.05721005  0.27785263    -0.01200
C2048       C  0.84725499  0.08297936  0.26444437     0.03800
C2049       C  0.77115296  0.07216735  0.30062752     0.38400
C2050       C  0.87296202  0.04883341  0.26831986     0.38400
C2051       C  0.87159884  0.10210543  0.24265408     0.36800
C2052       C  0.78492954  0.53049675  0.33805345     0.36800
N2053       N  0.89173836  0.11563854  0.22524749    -0.38000
N2054       N  0.76971527  0.51775968  0.35895596    -0.38000
N2055       N  0.89193938  0.04188892  0.26087352    -0.37400
N2056       N  0.74663289  0.07046759  0.30586055    -0.37400
C2057       C  0.81168777  0.02513612  0.17396420    -0.04100
C2058       C  0.79178186  0.02038452  0.19957357    -0.01200
C2059       C  0.78740811  0.04601762  0.21125041     0.03800
C2060       C  0.80829956  0.07895246  0.20324173    -0.04100
C2061       C  0.82934621  0.08416650  0.17863163    -0.01200
C2062       C  0.82891274  0.05729005  0.16278390     0.03800
C2063       C  0.77562373  0.98932107  0.21472909     0.38400
C2064       C  0.85427814  0.11674139  0.17042455     0.38400
C2065       C  0.84609194  0.06328897  0.13454747     0.36800
C2066       C  0.75972026  0.03763060  0.23007835     0.36800
N2067       N  0.86002566  0.06861942  0.11213858    -0.38000
N2068       N  0.73669723  0.02955633  0.24418690    -0.38000
N2069       N  0.87634391  0.14075432  0.16215914    -0.37400
N2070       N  0.77252200  0.46487204  0.22832921    -0.37400
C2071       C  0.59848427  0.08428707  0.10521910    -0.04100
C2072       C  0.60344091  0.09023512  0.07399879    -0.01200
C2073       C  0.57890753  0.06918235  0.05224283     0.03800
C2074       C  0.54918405  0.04217364  0.06165291    -0.04100
C2075       C  0.54456566  0.03615348  0.09296029    -0.01200
C2076       C  0.56943257  0.05668885  0.11456511     0.03800
C2077       C  0.63354107  0.11847177  0.06437979     0.38400
C2078       C  0.51316020  0.01101204  0.10348483     0.38400
C2079       C  0.56459305  0.05036356  0.14667870     0.36800
C2080       C  0.58390349  0.07576054  0.02021219     0.36800
N2081       N  0.56090510  0.04535700  0.17228557    -0.38000
N2082       N  0.58762761  0.08097062  0.99464118    -0.38000
N2083       N  0.98817758  0.99166254  0.11269443    -0.37400
N2084       N  0.65759257  0.14098010  0.05671514    -0.37400
C2085       C  0.69459680  0.13144786  0.18015722    -0.04100
C2086       C  0.69023688  0.10972793  0.20318311    -0.01200
C2087       C  0.71770556  0.11118407  0.21777440     0.03800
C2088       C  0.75017213  0.13535327  0.21034236    -0.04100
C2089       C  0.75392364  0.15789386  0.18789155    -0.01200
C2090       C  0.72648261  0.15547218  0.17263818     0.03800
C2091       C  0.65737308  0.08704473  0.21293897     0.38400
C2092       C  0.78522398  0.18637019  0.18206244     0.38400
C2093       C  0.73108988  0.17888791  0.14976527     0.36800
C2094       C  0.71182077  0.08782363  0.24075727     0.36800
N2095       N  0.73489815  0.19776591  0.13180136    -0.38000
N2096       N  0.70524986  0.06857945  0.25903228    -0.38000
N2097       N  0.80823116  0.21073695  0.17582516    -0.37400
N2098       N  0.63110961  0.06936945  0.22082807    -0.37400
C2099       C  0.63342393  0.24433963  0.19177143    -0.04100
C2100       C  0.65349316  0.24705920  0.16684423    -0.01200
C2101       C  0.65228331  0.21869198  0.15406546     0.03800
C2102       C  0.63156190  0.18772098  0.16592176    -0.04100
C2103       C  0.60840772  0.18414603  0.18724361    -0.01200
C2104       C  0.60843244  0.21217043  0.19922804     0.03800
C2105       C  0.67772854  0.27852348  0.15545465     0.38400
C2106       C  0.58570974  0.15170860  0.19809983     0.38400
C2107       C  0.58331486  0.20730883  0.22011818     0.36800
C2108       C  0.67366911  0.22147516  0.12964152     0.36800
N2109       N  0.56274867  0.20166726  0.23684254    -0.38000
N2110       N  0.69056681  0.22369662  0.11007203    -0.38000
N2111       N  0.56775343  0.12584827  0.20684093    -0.37400
N2112       N  0.69700729  0.30266099  0.14471050    -0.37400
C2113       C  0.61964486  0.60741097  0.13155208     0.04400
C2114       C  0.61437248  0.63333010  0.13868348    -0.11800
C2115       C  0.63353700  0.65704581  0.16124232     0.01900
C2116       C  0.65843213  0.65513013  0.17648523    -0.10300
C2117       C  0.66380224  0.62905532  0.16992396     0.04400
C2118       C  0.64404306  0.60492476  0.14738889    -0.09700
H2119       H  0.59534648  0.63502992  0.12662622     0.10000
H2120       H  0.67420254  0.67446736  0.19302349     0.07500
H2121       H  0.64812098  0.58490550  0.14169945     0.07300
C2122       C  0.81726458  0.64301305  0.26948827     0.46700
H2123       H  0.82188790  0.64620005  0.29405610    -0.02300
C2124       C  0.80623638  0.63453895  0.21125908     0.46700
H2125       H  0.80004242  0.62903328  0.18692646    -0.02300
C2126       C  0.78575475  0.64206364  0.26011262    -0.16000
C2127       C  0.84405178  0.67205243  0.25232590    -0.15800
C2128       C  0.81519052  0.61120568  0.25572197    -0.16200
C2129       C  0.77921719  0.63676493  0.22897317    -0.16100
C2130       C  0.83926921  0.66677718  0.22070811    -0.15700
C2131       C  0.80919909  0.60656530  0.22475570    -0.16000
C2132       C  0.64766106  0.80923244  0.25787911     0.46700
H2133       H  0.65041630  0.81081527  0.28254857    -0.02300
C2134       C  0.64588513  0.80390299  0.19949472     0.46700
H2135       H  0.64566294  0.80161387  0.17479426    -0.02300
C2136       C  0.67960156  0.83507101  0.24420912    -0.16000
C2137       C  0.64176529  0.77524335  0.24562212    -0.15800
C2138       C  0.62074550  0.81496951  0.24284243    -0.16200
C2139       C  0.67863615  0.83281417  0.21314745    -0.16100
C2140       C  0.63998234  0.77249007  0.21405326    -0.15700
C2141       C  0.61838770  0.80862721  0.21130335    -0.16000
C2142       C  0.97921134  0.81064317  0.12290223     0.04400
C2143       C  0.50633958  0.80687689  0.12902908    -0.11800
C2144       C  0.50171200  0.77727666  0.14090874     0.01900
C2145       C  0.96914146  0.75187254  0.14425863    -0.10300
C2146       C  0.94387610  0.75870873  0.14545100     0.04400
C2147       C  0.94852168  0.78774771  0.13365632    -0.09700
H2148       H  0.53048312  0.82722341  0.12458529     0.10000
H2149       H  0.96331581  0.72735494  0.14913768     0.07500
H2150       H  0.92840753  0.79219677  0.13213920     0.07300
C2151       C  0.83835225  0.97015598  0.12986535     0.04400
C2152       C  0.84161164  0.50018093  0.14443683    -0.11800
C2153       C  0.81396965  0.49795240  0.15849052     0.01900
C2154       C  0.78323759  0.96542882  0.15612202    -0.10300
C2155       C  0.78259330  0.93651370  0.14687670     0.04400
C2156       C  0.80974805  0.93921853  0.13219120    -0.09700
H2157       H  0.86452938  0.52345288  0.14440484     0.10000
H2158       H  0.76095782  0.96357228  0.16366329     0.07500
H2159       H  0.80852199  0.91735271  0.12227726     0.07300
C2160       C  0.49028393  0.83610015  0.34447543     0.04400
C2161       C  0.96007301  0.80969599  0.33447770    -0.11800
C2162       C  0.95845944  0.78735323  0.31177139     0.01900
C2163       C  0.48722193  0.79180178  0.29886617    -0.10300
C2164       C  0.51761958  0.81906492  0.30814068     0.04400
C2165       C  0.51904649  0.84094166  0.33116852    -0.09700
H2166       H  0.93772677  0.80630987  0.34396012     0.10000
H2167       H  0.98610676  0.77500417  0.28154079     0.07500
H2168       H  0.54247252  0.86231989  0.33813833     0.07300
C2169       C  0.84039614  0.97857033  0.34202680     0.04400
C2170       C  0.84708224  0.50726633  0.32998228    -0.11800
C2171       C  0.82409153  0.50726496  0.31039061     0.01900
C2172       C  0.79732519  0.97758812  0.29806897    -0.10300
C2173       C  0.79066251  0.94733250  0.30941609     0.04400
C2174       C  0.81245125  0.94826274  0.33212289    -0.09700
H2175       H  0.86862952  0.53048151  0.33733015     0.10000
H2176       H  0.78149020  0.97823454  0.28077675     0.07500
H2177       H  0.80766999  0.92591372  0.34260859     0.07300
C2178       C  0.63500500  0.63005363  0.34695223     0.04400
C2179       C  0.66327798  0.63076725  0.33684819    -0.11800
C2180       C  0.68737010  0.65793615  0.32140164     0.01900
C2181       C  0.68195616  0.68402852  0.31671049    -0.10300
C2182       C  0.65111489  0.68043993  0.32100824     0.04400
C2183       C  0.62803676  0.65394342  0.33736897    -0.09700
H2184       H  0.66614382  0.60998748  0.34115853     0.10000
H2185       H  0.70074885  0.70654689  0.30725956     0.07500
H2186       H  0.60462847  0.65143680  0.34207096     0.07300
O2187       O  0.55482624  0.96135330  0.50654360    -0.79700
O2188       O  0.95727306  0.98184215  0.42628865    -0.64300
O2189       O  0.52091141  0.99212482  0.48570674    -1.10900
C2190       C  0.92666287  0.91543591  0.53844702     1.07200
O2191       O  0.92691716  0.98683248  0.46059340    -0.77600
O2192       O  0.94472090  0.99520736  0.51901855    -0.65100
Ni2193     Ni  0.55711089  0.98801440  0.47337485     1.34900
C2194       C  0.96931848  0.50391137  0.53479019     0.86000
O2195       O  0.52183347  0.51948944  0.43216822    -0.78100
O2196       O  0.56513709  0.51380744  0.44061464    -0.88400
C2197       C  0.93295503  0.98447719  0.43301878     0.85500
O2198       O  0.53236716  0.94856864  0.44868361    -0.66600
O2199       O  0.91200486  0.92745684  0.52414708    -0.85900
C2200       C  0.50789901  0.93941756  0.43080769     0.86400
C2201       C  0.55125454  0.52747254  0.42774879     1.07900
H2202       H  0.95007410  0.93277400  0.47031922     0.39700
O2203       O  0.95865873  0.95420460  0.48048301    -1.08500
O2204       O  0.98798259  0.99298578  0.53581831    -0.65200
Ni2205     Ni  0.98943757  0.95897105  0.51143406     1.26300
O2206       O  0.99169140  0.95407734  0.43057657    -0.65400
O2207       O  0.95677585  0.92500722  0.53519762    -0.77700
C2208       C  0.54591854  0.96038054  0.53374787     0.85800
O2209       O  0.52202645  0.96400004  0.54018622    -0.64900
Ni2210     Ni  0.92177635  0.95750311  0.49202134     1.27400
Ni2211     Ni  0.98982399  0.98748775  0.45543071     1.26100
H2212       H  0.52964068  0.51177333  0.49632094     0.40300
O2213       O  0.97391869  0.89114794  0.00737899    -0.79700
O2214       O  0.99655305  0.50829488  0.92739875    -0.64300
O2215       O  0.50686910  0.95441676  0.98672505    -1.10900
C2216       C  0.93363769  0.97652912  0.04245777     1.07200
O2217       O  0.00799267  0.54628418  0.96303861    -0.77600
O2218       O  0.51432789  0.54020071  0.02258229    -0.65100
Ni2219     Ni  0.50366767  0.91348042  0.97552352     1.34900
C2220       C  0.52279065  0.52475025  0.03976064     0.86000
O2221       O  0.53180669  0.97683960  0.92843263    -0.78100
O2222       O  0.53353206  0.93254532  0.94292032    -0.88400
C2223       C  0.00184897  0.53675297  0.93527975     0.85500
O2224       O  0.96631422  0.89573740  0.94795772    -0.66600
O2225       O  0.94720664  0.50610436  0.02691382    -0.85900
C2226       C  0.95342970  0.90882938  0.93283903     0.86400
C2227       C  0.54257608  0.95702832  0.92607438     1.07900
H2228       H  0.94826659  0.96563207  0.97489905     0.39700
O2229       O  0.97006433  0.97870159  0.98348755    -1.08500
O2230       O  0.50973901  0.99077087  0.03778189    -0.65200
Ni2231     Ni  0.97503209  0.95399300  0.01424571     1.26300
O2232       O  0.96435396  0.93974507  0.93420787    -0.65400
O2233       O  0.94248620  0.95506025  0.03992177    -0.77700
C2234       C  0.97847452  0.90028285  0.03526930     0.85800
O2235       O  0.98098355  0.92758025  0.04309892    -0.64900
Ni2236     Ni  0.97756229  0.52472131  0.99459630     1.27400
Ni2237     Ni  0.00034665  0.97797389  0.95548451     1.26100
H2238       H  0.52833090  0.96845956  0.99545195     0.40300
C2239       C  0.98637532  0.61131597  0.61579702     0.04400
C2240       C  0.51647377  0.64025780  0.62144495    -0.11800
C2241       C  0.51909629  0.66565265  0.64094055     0.01900
C2242       C  0.99050122  0.66294313  0.65186609    -0.10300
C2243       C  0.96034931  0.63289667  0.64925812     0.04400
C2244       C  0.95875467  0.60697368  0.63117395    -0.09700
H2245       H  0.53814038  0.64276831  0.61117762     0.10000
H2246       H  0.99217046  0.68349459  0.66498668     0.07500
H2247       H  0.93636786  0.58318200  0.62926439     0.07300
C2248       C  0.99197768  0.61986668  0.84609399     0.04400
C2249       C  0.51956202  0.64688278  0.83401241    -0.11800
C2250       C  0.51609779  0.66338467  0.80948147     0.01900
C2251       C  0.98426588  0.65344606  0.79896761    -0.10300
C2252       C  0.95665820  0.62913970  0.81307756     0.04400
C2253       C  0.96044273  0.61168749  0.83621702    -0.09700
H2254       H  0.54354087  0.65436966  0.84354483     0.10000
H2255       H  0.98040802  0.66514124  0.78006304     0.07500
H2256       H  0.93906915  0.59188993  0.84642541     0.07300
C2257       C  0.82527737  0.63096913  0.70218613     0.46700
H2258       H  0.82911004  0.63221072  0.67782046    -0.02300
C2259       C  0.82222365  0.63339177  0.76054325     0.46700
H2260       H  0.82158497  0.63459339  0.78535558    -0.02300
C2261       C  0.85255858  0.62788569  0.71897878    -0.16000
C2262       C  0.82895178  0.66324228  0.71431665    -0.15800
C2263       C  0.79102296  0.60376660  0.71365245    -0.16200
C2264       C  0.85000446  0.62814021  0.75019710    -0.16100
C2265       C  0.82738136  0.66511785  0.74528868    -0.15700
C2266       C  0.79091696  0.60370011  0.74552448    -0.16000
C2267       C  0.66050895  0.79977790  0.70492720     0.46700
H2268       H  0.66096923  0.80291815  0.68045447    -0.02300
C2269       C  0.65539232  0.79411459  0.76293343     0.46700
H2270       H  0.65247123  0.79183504  0.78759464    -0.02300
C2271       C  0.66128123  0.82964218  0.72219442    -0.16000
C2272       C  0.62849962  0.76932535  0.71316440    -0.15800
C2273       C  0.68792463  0.79486519  0.71967723    -0.16200
C2274       C  0.65921431  0.82663662  0.75333100    -0.16100
C2275       C  0.62569689  0.76589690  0.74394675    -0.15700
C2276       C  0.68665463  0.79552172  0.75150666    -0.16000
C2277       C  0.63646069  0.95644632  0.62071538     0.04400
C2278       C  0.66341780  0.98803616  0.62802709    -0.11800
C2279       C  0.68785746  0.99224932  0.64872470     0.01900
C2280       C  0.68673322  0.96484688  0.66086408    -0.10300
C2281       C  0.66058447  0.93310399  0.65343884     0.04400
C2282       C  0.63516055  0.92883882  0.63354989    -0.09700
H2283       H  0.66393361  0.50719752  0.61842952     0.10000
H2284       H  0.70539931  0.96836971  0.67744391     0.07500
H2285       H  0.61424420  0.90435763  0.62868701     0.07300
C2286       C  0.84548215  0.81915059  0.62574601     0.04400
C2287       C  0.81932026  0.82106208  0.63839613    -0.11800
C2288       C  0.79888306  0.79779658  0.65919041     0.01900
C2289       C  0.80526325  0.77312304  0.66692243    -0.10300
C2290       C  0.83046621  0.77020074  0.65416046     0.04400
C2291       C  0.85066021  0.79346470  0.63345132    -0.09700
H2292       H  0.81499040  0.84047764  0.63207722     0.10000
H2293       H  0.78943192  0.75488903  0.68262455     0.07500
H2294       H  0.86966750  0.79116065  0.62254166     0.07300
C2295       C  0.84534093  0.81989827  0.84915958     0.04400
C2296       C  0.84651142  0.79331799  0.83525385    -0.11800
C2297       C  0.82343461  0.77298916  0.81220650     0.01900
C2298       C  0.79841867  0.77920569  0.80438105    -0.10300
C2299       C  0.79604533  0.80466141  0.81883729     0.04400
C2300       C  0.81986767  0.82534861  0.84100771    -0.09700
H2301       H  0.86575938  0.78889297  0.84218774     0.10000
H2302       H  0.78073498  0.76450488  0.78635326     0.07500
H2303       H  0.81883758  0.84575862  0.85158167     0.07300
C2304       C  0.64660110  0.96590482  0.85065610     0.04400
C2305       C  0.65018266  0.93797405  0.84924432    -0.11800
C2306       C  0.67297640  0.93630801  0.82988450     0.01900
C2307       C  0.69536186  0.96575271  0.81623841    -0.10300
C2308       C  0.69305671  0.99406413  0.81745910     0.04400
C2309       C  0.66796256  0.99370726  0.83428510    -0.09700
H2310       H  0.63507885  0.91814281  0.86362898     0.10000
H2311       H  0.71425843  0.96679299  0.80253215     0.07500
H2312       H  0.66485267  0.51577575  0.83538780     0.07300
C2313       C  0.76894360  0.80969404  0.80868354    -0.04100
C2314       C  0.73669256  0.78790115  0.81723542    -0.01200
C2315       C  0.70980020  0.78561302  0.80081302     0.03800
C2316       C  0.71488953  0.80377737  0.77407141    -0.04100
C2317       C  0.74771558  0.82931078  0.76884811    -0.01200
C2318       C  0.77434611  0.83229349  0.78631346     0.03800
C2319       C  0.73116878  0.76716790  0.84275019     0.38400
C2320       C  0.75540695  0.85090433  0.74383300     0.38400
C2321       C  0.80768068  0.85773169  0.78028763     0.36800
C2322       C  0.67744225  0.76376079  0.81183130     0.36800
N2323       N  0.83421865  0.87819517  0.77563111    -0.38000
N2324       N  0.65225922  0.74707554  0.82232810    -0.38000
N2325       N  0.76392365  0.86800431  0.72353866    -0.37400
N2326       N  0.72645221  0.75063445  0.86315284    -0.37400
C2327       C  0.76995301  0.79738298  0.67313682    -0.04100
C2328       C  0.76509481  0.79223069  0.70444648    -0.01200
C2329       C  0.73428889  0.78189709  0.71631426     0.03800
C2330       C  0.71223662  0.78894145  0.70136546    -0.04100
C2331       C  0.71485171  0.79005232  0.66901226    -0.01200
C2332       C  0.74351679  0.79401309  0.65513075     0.03800
C2333       C  0.79129579  0.79582373  0.72437318     0.38400
C2334       C  0.68695904  0.78160890  0.64915203     0.38400
C2335       C  0.74459129  0.79203629  0.62230038     0.36800
C2336       C  0.72306663  0.75677160  0.73854888     0.36800
N2337       N  0.74483631  0.78994749  0.59609362    -0.38000
N2338       N  0.71556948  0.73632529  0.75579027    -0.38000
N2339       N  0.66508870  0.77446325  0.63250783    -0.37400
N2340       N  0.81294115  0.79891134  0.73926276    -0.37400
C2341       C  0.66412095  0.85297867  0.77716126    -0.04100
C2342       C  0.64098089  0.84649073  0.80000121    -0.01200
C2343       C  0.64276842  0.87274184  0.81818982     0.03800
C2344       C  0.67183375  0.90442585  0.81941338    -0.04100
C2345       C  0.69883105  0.90628750  0.80416932    -0.01200
C2346       C  0.69346324  0.88399460  0.77964712     0.03800
C2347       C  0.61481515  0.81339298  0.80531920     0.38400
C2348       C  0.73223649  0.92918554  0.81497754     0.38400
C2349       C  0.71762525  0.89497556  0.75652678     0.36800
C2350       C  0.61415792  0.86581838  0.83500540     0.36800
N2351       N  0.73690612  0.90626201  0.73801467    -0.38000
N2352       N  0.59073212  0.85900067  0.84809855    -0.38000
N2353       N  0.75891878  0.94724564  0.82354351    -0.37400
N2354       N  0.59415774  0.78788181  0.81242713    -0.37400
C2355       C  0.66145757  0.85707473  0.70515522    -0.04100
C2356       C  0.68298772  0.87154910  0.68081442    -0.01200
C2357       C  0.68153210  0.89512343  0.66306655     0.03800
C2358       C  0.65903398  0.90518028  0.66946065    -0.04100
C2359       C  0.63794367  0.89158952  0.69375652    -0.01200
C2360       C  0.63868903  0.86743339  0.71123456     0.03800
C2361       C  0.70795835  0.86373400  0.67411009     0.38400
C2362       C  0.61580677  0.90315744  0.70128766     0.38400
C2363       C  0.61434211  0.85266879  0.73411904     0.36800
C2364       C  0.70368230  0.90944219  0.63823078     0.36800
N2365       N  0.59429199  0.84267981  0.75203726    -0.38000
N2366       N  0.72152803  0.92068042  0.61856541    -0.38000
N2367       N  0.59824436  0.91239818  0.70743849    -0.37400
N2368       N  0.72844887  0.85876633  0.66734674    -0.37400
C2369       C  0.83067934  0.68843838  0.69338619    -0.04100
C2370       C  0.86105465  0.71639246  0.68688744    -0.01200
C2371       C  0.86215279  0.74347729  0.67291887     0.03800
C2372       C  0.83278881  0.74085017  0.66200388    -0.04100
C2373       C  0.80363093  0.70968482  0.66188523    -0.01200
C2374       C  0.80217598  0.68420846  0.67866234     0.03800
C2375       C  0.89094790  0.71604872  0.69180564     0.38400
C2376       C  0.77462250  0.70403269  0.64495389     0.38400
C2377       C  0.77091476  0.65399388  0.67982715     0.36800
C2378       C  0.89338940  0.77364362  0.67024291     0.36800
N2379       N  0.74465940  0.63126977  0.67884063    -0.38000
N2380       N  0.91865925  0.79736938  0.66805531    -0.38000
N2381       N  0.75146469  0.69969969  0.63180157    -0.37400
N2382       N  0.91503839  0.71586243  0.69440813    -0.37400
C2383       C  0.82717124  0.69341969  0.76215077    -0.04100
C2384       C  0.85629564  0.72376140  0.76973960    -0.01200
C2385       C  0.85510702  0.75027356  0.78441562     0.03800
C2386       C  0.82527702  0.74550201  0.79568482    -0.04100
C2387       C  0.79653939  0.71457189  0.78924410    -0.01200
C2388       C  0.79729094  0.69077737  0.76977348     0.03800
C2389       C  0.88794595  0.72856562  0.76291837     0.38400
C2390       C  0.76589548  0.70629162  0.80313499     0.38400
C2391       C  0.76698780  0.66623531  0.75491139     0.36800
C2392       C  0.88457310  0.78269779  0.78662013     0.36800
N2393       N  0.74184217  0.64923105  0.74289991    -0.38000
N2394       N  0.90821756  0.80844174  0.78805918    -0.38000
N2395       N  0.74136432  0.69929212  0.81418361    -0.37400
N2396       N  0.91436438  0.73466080  0.75893615    -0.37400
C2397       C  0.76116004  0.58131527  0.69219665    -0.04100
C2398       C  0.76441991  0.57386460  0.66118614    -0.01200
C2399       C  0.74088390  0.54335519  0.64704394     0.03800
C2400       C  0.71129682  0.52332279  0.66114062    -0.04100
C2401       C  0.70392707  0.53536725  0.68741053    -0.01200
C2402       C  0.72823824  0.56480963  0.70238907     0.03800
C2403       C  0.78711549  0.59867490  0.64138918     0.38400
C2404       C  0.67154620  0.51651900  0.69988349     0.38400
C2405       C  0.71775324  0.57704463  0.72762640     0.36800
C2406       C  0.74703332  0.53260098  0.61798649     0.36800
N2407       N  0.70646812  0.58343300  0.74787078    -0.38000
N2408       N  0.75195347  0.52382076  0.59493528    -0.38000
N2409       N  0.64682744  0.99853226  0.71302633    -0.37400
N2410       N  0.80424564  0.61800164  0.62458020    -0.37400
C2411       C  0.71523779  0.52297389  0.79799379    -0.04100
C2412       C  0.72313542  0.51756738  0.76832630    -0.01200
C2413       C  0.75145335  0.54216753  0.75465542     0.03800
C2414       C  0.76629287  0.57573136  0.76499403    -0.04100
C2415       C  0.75622691  0.58182786  0.79374294    -0.01200
C2416       C  0.73325905  0.55535517  0.81102633     0.03800
C2417       C  0.70487330  0.98662500  0.75328103     0.38400
C2418       C  0.76804385  0.61483670  0.80623349     0.38400
C2419       C  0.72918891  0.56181783  0.84256251     0.36800
C2420       C  0.76436269  0.53198127  0.72983738     0.36800
N2421       N  0.72664726  0.56767347  0.86770543    -0.38000
N2422       N  0.77320430  0.52233742  0.70993514    -0.38000
N2423       N  0.77697908  0.64044974  0.81786931    -0.37400
N2424       N  0.68877861  0.96147824  0.74030596    -0.37400
C2425       C  0.87091877  0.62235811  0.77244347    -0.04100
C2426       C  0.87780924  0.59688291  0.76651087    -0.01200
C2427       C  0.90483757  0.59781370  0.78115762     0.03800
C2428       C  0.92403015  0.62301202  0.80307029    -0.04100
C2429       C  0.91415572  0.64520606  0.81254682    -0.01200
C2430       C  0.88717244  0.64439069  0.79794149     0.03800
C2431       C  0.85730629  0.56953137  0.74545297     0.38400
C2432       C  0.93324115  0.67050252  0.83600805     0.38400
C2433       C  0.87790560  0.66757673  0.80874179     0.36800
C2434       C  0.91413952  0.57399021  0.77248277     0.36800
N2435       N  0.87051499  0.68563523  0.81876824    -0.38000
N2436       N  0.92177834  0.55513436  0.76564140    -0.38000
N2437       N  0.94843805  0.69090981  0.85451168    -0.37400
N2438       N  0.84152232  0.54712100  0.72896172    -0.37400
C2439       C  0.54515484  0.69001390  0.79358561    -0.04100
C2440       C  0.57240944  0.68687374  0.78617171    -0.01200
C2441       C  0.59834280  0.71128975  0.76960855     0.03800
C2442       C  0.59673591  0.73801787  0.75841413    -0.04100
C2443       C  0.56803224  0.73901323  0.76285311    -0.01200
C2444       C  0.54444465  0.71766868  0.78301942     0.03800
C2445       C  0.57441503  0.65870018  0.79511486     0.38400
C2446       C  0.56158001  0.76093343  0.74604338     0.38400
C2447       C  0.52109889  0.72607631  0.79458689     0.36800
C2448       C  0.62587134  0.70751641  0.76294489     0.36800
N2449       N  0.00271870  0.73269093  0.80386857    -0.38000
N2450       N  0.64708750  0.70295643  0.75848364    -0.38000
N2451       N  0.55420679  0.77661342  0.73221204    -0.37400
N2452       N  0.57711318  0.63688532  0.80233818    -0.37400
C2453       C  0.88022106  0.62747403  0.70201280    -0.04100
C2454       C  0.87354304  0.60803299  0.67467926    -0.01200
C2455       C  0.89923258  0.61174422  0.65613407     0.03800
C2456       C  0.93195104  0.62873245  0.66770290    -0.04100
C2457       C  0.93782553  0.64282193  0.69757950    -0.01200
C2458       C  0.91361596  0.64629444  0.71235917     0.03800
C2459       C  0.84098935  0.58085593  0.66707050     0.38400
C2460       C  0.96884714  0.65349017  0.71349896     0.38400
C2461       C  0.92501383  0.67109209  0.73679773     0.36800
C2462       C  0.89145110  0.59835323  0.62508962     0.36800
N2463       N  0.93700954  0.69158630  0.75579832    -0.38000
N2464       N  0.88498372  0.58768291  0.60031082    -0.38000
N2465       N  0.99402057  0.66198773  0.72513800    -0.37400
N2466       N  0.81620551  0.55745037  0.66034503    -0.37400
C2467       C  0.55149711  0.69384989  0.65305655    -0.04100
C2468       C  0.57464137  0.68810567  0.66773789    -0.01200
C2469       C  0.60207308  0.71418909  0.68384600     0.03800
C2470       C  0.60420970  0.74475479  0.68953327    -0.04100
C2471       C  0.58374007  0.75173047  0.67174901    -0.01200
C2472       C  0.55795248  0.72656426  0.65316670     0.03800
C2473       C  0.56983755  0.65525326  0.66766141     0.38400
C2474       C  0.58969368  0.78487153  0.67107423     0.38400
C2475       C  0.53813861  0.73434573  0.63385407     0.36800
C2476       C  0.63022689  0.71116461  0.69031387     0.36800
N2477       N  0.52235389  0.74044704  0.61832996    -0.38000
N2478       N  0.65312663  0.70891842  0.69359155    -0.38000
N2479       N  0.59338624  0.81085366  0.66897371    -0.37400
N2480       N  0.56596057  0.62901645  0.66774946    -0.37400
C2481       C  0.87213147  0.84319543  0.87106469    -0.04100
C2482       C  0.87187413  0.83550260  0.90178361    -0.01200
C2483       C  0.89798876  0.85714777  0.92213801     0.03800
C2484       C  0.92469779  0.88684693  0.91196969    -0.04100
C2485       C  0.92457092  0.89460066  0.88122358    -0.01200
C2486       C  0.89863285  0.87278958  0.86088764     0.03800
C2487       C  0.84466187  0.80520445  0.91243373     0.38400
C2488       C  0.95192880  0.92428032  0.86993230     0.38400
C2489       C  0.89988209  0.88019887  0.82906425     0.36800
C2490       C  0.89670869  0.84923445  0.95379990     0.36800
N2491       N  0.90114674  0.88606957  0.80365179    -0.38000
N2492       N  0.89534092  0.84286568  0.97908008    -0.38000
N2493       N  0.97380530  0.94777027  0.86066528    -0.37400
N2494       N  0.82295631  0.78103504  0.92095864    -0.37400
C2495       C  0.56821844  0.96289076  0.90365421    -0.04100
C2496       C  0.56080362  0.94125379  0.87794711    -0.01200
C2497       C  0.58619849  0.94310155  0.86000477     0.03800
C2498       C  0.61949946  0.96549968  0.86840763    -0.04100
C2499       C  0.62670951  0.98737390  0.89391072    -0.01200
C2500       C  0.60125429  0.98684242  0.91067600     0.03800
C2501       C  0.52700489  0.91672432  0.87004111     0.38400
C2502       C  0.66024711  0.00842342  0.90482705     0.38400
C2503       C  0.60908987  0.01013287  0.93615076     0.36800
C2504       C  0.57792755  0.92188654  0.83282016     0.36800
N2505       N  0.61924172  0.52948294  0.96032457    -0.38000
N2506       N  0.57113714  0.90499244  0.81108673    -0.38000
N2507       N  0.68910648  0.52295278  0.91685181    -0.37400
N2508       N  0.00038671  0.89798747  0.86249842    -0.37400
C2509       C  0.99615844  0.59988083  0.86903488    -0.04100
C2510       C  0.50504373  0.57696209  0.86023870    -0.01200
C2511       C  0.50838490  0.55740914  0.88190821     0.03800
C2512       C  0.00112330  0.55932492  0.91247561    -0.04100
C2513       C  0.99238190  0.58297739  0.92133047    -0.01200
C2514       C  0.99086202  0.60365496  0.89980045     0.03800
C2515       C  0.51013511  0.57277640  0.82841045     0.38400
C2516       C  0.98357748  0.58555300  0.95227805     0.38400
C2517       C  0.98424031  0.62929096  0.90923672     0.36800
C2518       C  0.52031239  0.53598547  0.87226790     0.36800
N2519       N  0.97933285  0.65004938  0.91646760    -0.38000
N2520       N  0.53030925  0.51940081  0.86424523    -0.38000
N2521       N  0.97641934  0.58765058  0.97688883    -0.37400
N2522       N  0.51403860  0.56920588  0.80303789    -0.37400
C2523       C  0.90710368  0.88891410  0.55995534    -0.04100
C2524       C  0.87443600  0.86400359  0.55192698    -0.01200
C2525       C  0.85462897  0.84096513  0.57327862     0.03800
C2526       C  0.86678276  0.84310601  0.60312625    -0.04100
C2527       C  0.89993517  0.86651620  0.61060469    -0.01200
C2528       C  0.92033005  0.88849113  0.58878480     0.03800
C2529       C  0.86184647  0.86031919  0.52097071     0.38400
C2530       C  0.91316184  0.86817445  0.64086588     0.38400
C2531       C  0.95502557  0.90988174  0.59597624     0.36800
C2532       C  0.82240793  0.81373437  0.56394824     0.36800
N2533       N  0.98277510  0.92645214  0.60167107    -0.38000
N2534       N  0.79703844  0.79168101  0.55615834    -0.38000
N2535       N  0.92399839  0.86979699  0.66494500    -0.37400
N2536       N  0.85174497  0.85692871  0.49626197    -0.37400
C2537       C  0.97704396  0.53231985  0.55586304    -0.04100
C2538       C  0.97140308  0.52752127  0.58714412    -0.01200
C2539       C  0.97598409  0.55373290  0.60689496     0.03800
C2540       C  0.98380903  0.58432565  0.59520381    -0.04100
C2541       C  0.98878140  0.58892542  0.56372075    -0.01200
C2542       C  0.98684726  0.56350549  0.54440754     0.03800
C2543       C  0.45846841  0.49467250  0.59909598     0.38400
C2544       C  0.99413921  0.61911571  0.55090288     0.38400
C2545       C  0.99581748  0.56966541  0.51292500     0.36800
C2546       C  0.47240949  0.54881207  0.63965704     0.36800
N2547       N  0.00366195  0.57475503  0.48798730    -0.38000
N2548       N  0.47022963  0.54533302  0.66556949    -0.38000
N2549       N  0.99787058  0.64296563  0.54058314    -0.37400
N2550       N  0.44908562  0.96991115  0.60851375    -0.37400
C2551       C  0.56456760  0.95492588  0.55820647    -0.04100
C2552       C  0.57211989  0.97257390  0.58658559    -0.01200
C2553       C  0.59378485  0.97111671  0.60779679     0.03800
C2554       C  0.60933317  0.95316506  0.60052183    -0.04100
C2555       C  0.60095407  0.93461984  0.57269721    -0.01200
C2556       C  0.57809577  0.93478031  0.55205555     0.03800
C2557       C  0.55982716  0.99444059  0.59328421     0.38400
C2558       C  0.61773289  0.91737819  0.56411922     0.38400
C2559       C  0.56908844  0.91455181  0.52410667     0.36800
C2560       C  0.60096766  0.98928164  0.63679540     0.36800
N2561       N  0.56199599  0.89856130  0.50175181    -0.38000
N2562       N  0.60681563  0.00416699  0.65968886    -0.38000
N2563       N  0.63134290  0.90391366  0.55710049    -0.37400
N2564       N  0.55037052  0.01214254  0.59871441    -0.37400
C2565       C  0.61281711  0.60421595  0.36772818    -0.04100
C2566       C  0.58020402  0.58076959  0.35850904    -0.01200
C2567       C  0.55911298  0.55699860  0.37876366     0.03800
C2568       C  0.57132518  0.55487026  0.40750048    -0.04100
C2569       C  0.60342919  0.57938818  0.41725289    -0.01200
C2570       C  0.62399154  0.60401767  0.39755478     0.03800
C2571       C  0.56859107  0.58060065  0.32789040     0.34000
C2572       C  0.61443131  0.58078886  0.44848752     0.38400
C2573       C  0.65613140  0.63000177  0.40868461     0.36800
C2574       C  0.52479253  0.53547986  0.37018360     0.36800
N2575       N  0.68146994  0.65065571  0.41824885    -0.38000
N2576       N  0.99729522  0.51841459  0.36289129    -0.38000
N2577       N  0.62273589  0.58187300  0.47351076    -0.37400
N2578       N  0.55949300  0.58048047  0.30339002    -0.37400
C2579       C  0.86426740  0.98023912  0.36512661    -0.04100
C2580       C  0.88332158  0.96598718  0.35853368    -0.01200
C2581       C  0.90575157  0.96727444  0.38053837     0.03800
C2582       C  0.91114313  0.98506295  0.40868415    -0.04100
C2583       C  0.89616214  0.50066687  0.41247092    -0.01200
C2584       C  0.87212977  0.49769522  0.39159683     0.03800
C2585       C  0.88100811  0.95133569  0.32849842     0.38400
C2586       C  0.90477138  0.52285502  0.43904619     0.38400
C2587       C  0.85393899  0.51390373  0.39864660     0.36800
C2588       C  0.92182881  0.94874257  0.37444861     0.36800
N2589       N  0.83957065  0.52696963  0.40414282    -0.38000
N2590       N  0.93433951  0.93367673  0.36957164    -0.38000
N2591       N  0.91174231  0.54063740  0.46015109    -0.37400
N2592       N  0.87969390  0.94021259  0.30439577    -0.37400
C2593       C  0.49210328  0.86161906  0.36650626    -0.04100
C2594       C  0.98304933  0.85497906  0.39680246    -0.01200
C2595       C  0.98580625  0.87983264  0.41752153     0.03800
C2596       C  0.49960594  0.91195731  0.40840595    -0.04100
C2597       C  0.50857054  0.91912055  0.37798838    -0.01200
C2598       C  0.50392666  0.89395232  0.35695486     0.03800
C2599       C  0.97269022  0.82239519  0.40730241     0.38400
C2600       C  0.52466514  0.95283099  0.36857927     0.38400
C2601       C  0.51204264  0.90159125  0.32545373     0.36800
C2602       C  0.97355122  0.87163905  0.44791249     0.36800
N2603       N  0.51864013  0.90766083  0.30036877    -0.38000
N2604       N  0.96329469  0.86512122  0.47200766    -0.38000
N2605       N  0.53821032  0.97958238  0.36061136    -0.37400
N2606       N  0.96499353  0.79656981  0.41581549    -0.37400
C2607       C  0.86411980  0.97300069  0.10866849    -0.04100
C2608       C  0.86626929  0.98625610  0.07996680    -0.01200
C2609       C  0.88802523  0.98644511  0.05829008     0.03800
C2610       C  0.90771848  0.97247608  0.06448920    -0.04100
C2611       C  0.90336242  0.95667819  0.09236374    -0.01200
C2612       C  0.88299461  0.95837745  0.11475131     0.03800
C2613       C  0.84479900  0.99843844  0.07206717     0.38400
C2614       C  0.91976091  0.44030060  0.09654104     0.38400
C2615       C  0.88345550  0.44791579  0.14348033     0.36800
C2616       C  0.88834911  0.99938499  0.02875031     0.36800
N2617       N  0.88453937  0.43869401  0.16722794    -0.38000
N2618       N  0.88859262  0.00970003  0.00521804    -0.38000
N2619       N  0.93222746  0.42521673  0.10088613    -0.37400
N2620       N  0.82746790  0.00782523  0.06560103    -0.37400
C2621       C  0.97916448  0.87773523  0.05838623    -0.04100
C2622       C  0.99408771  0.88985417  0.08788891    -0.01200
C2623       C  0.99453648  0.86819437  0.10915164     0.03800
C2624       C  0.98136926  0.83469688  0.10088463    -0.04100
C2625       C  0.96897418  0.82302851  0.07110113    -0.01200
C2626       C  0.96680295  0.84383834  0.05031773     0.03800
C2627       C  0.51206649  0.92484242  0.09572751     0.38400
C2628       C  0.95944028  0.78949941  0.06144227     0.38400
C2629       C  0.95168094  0.82948921  0.02065124     0.36800
C2630       C  0.51105348  0.88044382  0.13855933     0.36800
N2631       N  0.93982935  0.81762689  0.99704746    -0.38000
N2632       N  0.52361281  0.89001436  0.16236264    -0.38000
N2633       N  0.95235906  0.76300293  0.05364602    -0.37400
N2634       N  0.52628747  0.95266510  0.10264583    -0.37400
C2635       C  0.58799311  0.79598768  0.19062918    -0.04100
C2636       C  0.55667370  0.77204573  0.20068584    -0.01200
C2637       C  0.52860073  0.75998912  0.18146565     0.03800
C2638       C  0.53026582  0.77524566  0.15369839    -0.04100
C2639       C  0.56130949  0.79399198  0.14136351    -0.01200
C2640       C  0.58997021  0.80452629  0.15943523     0.03800
C2641       C  0.55215981  0.75978774  0.23109842     0.38400
C2642       C  0.56372487  0.80099842  0.10927490     0.38400
C2643       C  0.62064487  0.82444560  0.14469126     0.36800
C2644       C  0.49975768  0.72935013  0.18920904     0.36800
N2645       N  0.64389480  0.83878356  0.13068653    -0.38000
N2646       N  0.97728791  0.70412424  0.19528811    -0.38000
N2647       N  0.56589150  0.80675792  0.08378750    -0.37400
N2648       N  0.54704672  0.75034949  0.25549632    -0.37400
C2649       C  0.60013407  0.82624351  0.26087549    -0.04100
C2650       C  0.60025877  0.82756383  0.29333608    -0.01200
C2651       C  0.57289223  0.82409259  0.30874775     0.03800
C2652       C  0.54776530  0.82505590  0.29272848    -0.04100
C2653       C  0.55245774  0.83376196  0.26220751    -0.01200
C2654       C  0.57901180  0.83544834  0.24653238     0.03800
C2655       C  0.62969714  0.83831445  0.31171111     0.38400
C2656       C  0.53077902  0.84260439  0.24736648     0.38400
C2657       C  0.58564425  0.85038046  0.21733250     0.36800
C2658       C  0.57087076  0.81989859  0.34129371     0.36800
N2659       N  0.58851342  0.86242026  0.19423162    -0.38000
N2660       N  0.56933205  0.81664527  0.36724979    -0.38000
N2661       N  0.51379072  0.84995389  0.23549323    -0.37400
N2662       N  0.65272041  0.84716436  0.32729049    -0.37400
C2663       C  0.75472769  0.90437161  0.15676391    -0.04100
C2664       C  0.72273928  0.89893941  0.15543482    -0.01200
C2665       C  0.70001831  0.87919815  0.17684448     0.03800
C2666       C  0.70512272  0.85733085  0.19378914    -0.04100
C2667       C  0.73522202  0.85853712  0.19109735    -0.01200
C2668       C  0.76060869  0.88338280  0.17449988     0.03800
C2669       C  0.71355148  0.91466227  0.13278548     0.38400
C2670       C  0.74076724  0.83438942  0.20472717     0.38400
C2671       C  0.79290043  0.88772271  0.17721039     0.36800
C2672       C  0.67423646  0.88548579  0.18392574     0.36800
N2673       N  0.81818057  0.89011404  0.18011293    -0.38000
N2674       N  0.65510185  0.89292727  0.18881451    -0.38000
N2675       N  0.74744296  0.81597324  0.21409454    -0.37400
N2676       N  0.70614016  0.92695169  0.11457713    -0.37400
C2677       C  0.76046631  0.91588043  0.29727058    -0.04100
C2678       C  0.76047027  0.88637547  0.29004976    -0.01200
C2679       C  0.73249437  0.85887238  0.27577712     0.03800
C2680       C  0.70694503  0.86228014  0.26346920    -0.04100
C2681       C  0.70605292  0.89074665  0.27190155    -0.01200
C2682       C  0.73114651  0.91585913  0.29081385     0.03800
C2683       C  0.78887958  0.88370334  0.29647738     0.38400
C2684       C  0.67876489  0.89411517  0.26235400     0.38400
C2685       C  0.72549725  0.94053612  0.30494339     0.36800
C2686       C  0.72902299  0.82663178  0.27610398     0.36800
N2687       N  0.72003944  0.95959393  0.31606713    -0.38000
N2688       N  0.72654805  0.80107131  0.27751257    -0.38000
N2689       N  0.65749763  0.89800553  0.25557729    -0.37400
N2690       N  0.81104653  0.88060676  0.30138944    -0.37400
C2691       C  0.64211755  0.75002596  0.26636453    -0.04100
C2692       C  0.65577945  0.73095032  0.25651360    -0.01200
C2693       C  0.64898827  0.70286389  0.27182628     0.03800
C2694       C  0.64252739  0.70120655  0.30271758    -0.04100
C2695       C  0.63095969  0.72105255  0.31475967    -0.01200
C2696       C  0.62772887  0.74307600  0.29562194     0.03800
C2697       C  0.67996169  0.74137845  0.23342860     0.38400
C2698       C  0.62076686  0.71742636  0.34593043     0.38400
C2699       C  0.60740419  0.75566407  0.30573773     0.36800
C2700       C  0.64473323  0.67382368  0.25547679     0.36800
N2701       N  0.58994491  0.76375724  0.31511511    -0.38000
N2702       N  0.64021983  0.64969227  0.24343223    -0.38000
N2703       N  0.61244266  0.71406665  0.37078699    -0.37400
N2704       N  0.69968562  0.74888481  0.21535018    -0.37400
C2705       C  0.87130395  0.70278076  0.27010261    -0.04100
C2706       C  0.88811830  0.69943316  0.29567706    -0.01200
C2707       C  0.91533475  0.72734211  0.31026908     0.03800
C2708       C  0.92653562  0.75906539  0.30005807    -0.04100
C2709       C  0.90940923  0.76327677  0.27625984    -0.01200
C2710       C  0.88210025  0.73566616  0.26141288     0.03800
C2711       C  0.88036676  0.66750095  0.30597083     0.38400
C2712       C  0.92093920  0.79638479  0.26616188     0.38400
C2713       C  0.86787391  0.74266443  0.23581747     0.36800
C2714       C  0.93287659  0.72341718  0.33542246     0.36800
N2715       N  0.86020533  0.75197613  0.21520860    -0.38000
N2716       N  0.94691358  0.72036979  0.35544547    -0.38000
N2717       N  0.92998657  0.82265248  0.25803546    -0.37400
N2718       N  0.87529631  0.64288317  0.31557310    -0.37400
C2719       C  0.86512393  0.68785363  0.19830436    -0.04100
C2720       C  0.85813426  0.69424254  0.16828954    -0.01200
C2721       C  0.88347906  0.71889780  0.15126704     0.03800
C2722       C  0.91541352  0.73733776  0.16384719    -0.04100
C2723       C  0.92185654  0.73126169  0.19329526    -0.01200
C2724       C  0.89857819  0.70341661  0.20759524     0.03800
C2725       C  0.82718168  0.67313667  0.15213969     0.38400
C2726       C  0.95243421  0.75415662  0.20940529     0.38400
C2727       C  0.91059962  0.68993288  0.22988523     0.36800
C2728       C  0.87681715  0.72514422  0.12074478     0.36800
N2729       N  0.92219509  0.68097676  0.24751595    -0.38000
N2730       N  0.87140816  0.73032288  0.09653215    -0.38000
N2731       N  0.97667169  0.77248275  0.22238152    -0.37400
N2732       N  0.80321174  0.65682068  0.13785350    -0.37400
C2733       C  0.76800989  0.65295386  0.28148405    -0.04100
C2734       C  0.75911336  0.67476857  0.27099514    -0.01200
C2735       C  0.73107393  0.67364263  0.28129033     0.03800
C2736       C  0.71718054  0.65853779  0.30899261    -0.04100
C2737       C  0.73410149  0.64602072  0.32545621    -0.01200
C2738       C  0.75952365  0.64321865  0.31176322     0.03800
C2739       C  0.78290085  0.70410262  0.25632603     0.38400
C2740       C  0.72739156  0.63816299  0.35706074     0.38400
C2741       C  0.78009684  0.63660890  0.33105494     0.36800
C2742       C  0.71852017  0.68873096  0.26180795     0.36800
N2743       N  0.79645715  0.63213339  0.34747792    -0.38000
N2744       N  0.71234366  0.70249428  0.24427173    -0.38000
N2745       N  0.72266638  0.63174680  0.38230990    -0.37400
N2746       N  0.80068676  0.72935558  0.24649280    -0.37400
C2747       C  0.82181222  0.58898720  0.27421765    -0.04100
C2748       C  0.80058430  0.57072947  0.29754907    -0.01200
C2749       C  0.80457991  0.54698872  0.31224556     0.03800
C2750       C  0.82710238  0.53855592  0.30153603    -0.04100
C2751       C  0.84955258  0.55765723  0.27978585    -0.01200
C2752       C  0.84763725  0.58346538  0.26679955     0.03800
C2753       C  0.77117427  0.57148415  0.30327996     0.38400
C2754       C  0.87359026  0.54959342  0.26967527     0.38400
C2755       C  0.87104767  0.60221128  0.24417896     0.36800
C2756       C  0.78407858  0.03109381  0.33578375     0.36800
N2757       N  0.88994834  0.61531281  0.22567135    -0.38000
N2758       N  0.76846398  0.01871386  0.35658044    -0.38000
N2759       N  0.89268830  0.54307020  0.26163043    -0.37400
N2760       N  0.74636800  0.56930079  0.30824429    -0.37400
C2761       C  0.81377280  0.52642807  0.17526292    -0.04100
C2762       C  0.79586930  0.52106803  0.20223531    -0.01200
C2763       C  0.78996594  0.54541568  0.21455519     0.03800
C2764       C  0.80831298  0.57847349  0.20553582    -0.04100
C2765       C  0.82803772  0.58434406  0.17967121    -0.01200
C2766       C  0.82856635  0.55817470  0.16351279     0.03800
C2767       C  0.78314514  0.49025338  0.21757953     0.38400
C2768       C  0.85083685  0.61707645  0.17017094     0.38400
C2769       C  0.84459095  0.56453666  0.13461204     0.36800
C2770       C  0.76298832  0.53498456  0.23474525     0.36800
N2771       N  0.85774349  0.57046732  0.11175522    -0.38000
N2772       N  0.74048338  0.52444928  0.24996078    -0.38000
N2773       N  0.87122706  0.64113562  0.16026487    -0.37400
N2774       N  0.76191471  0.96412782  0.22601500    -0.37400
C2775       C  0.59795736  0.58249958  0.10800604    -0.04100
C2776       C  0.60492274  0.58819124  0.07700265    -0.01200
C2777       C  0.58068107  0.56865415  0.05444414     0.03800
C2778       C  0.54922141  0.54391874  0.06296640    -0.04100
C2779       C  0.54253279  0.53844981  0.09406528    -0.01200
C2780       C  0.56721751  0.55672798  0.11640752     0.03800
C2781       C  0.63673057  0.61475706  0.06850044     0.38400
C2782       C  0.50940132  0.51721440  0.10355755     0.38400
C2783       C  0.56053073  0.55009900  0.14829053     0.36800
C2784       C  0.58773870  0.57462616  0.02257526     0.36800
N2785       N  0.55525825  0.54461853  0.17366705    -0.38000
N2786       N  0.59320154  0.57939586  0.99712286    -0.38000
N2787       N  0.98304118  0.50002451  0.11161374    -0.37400
N2788       N  0.66217909  0.63597376  0.06187164    -0.37400
C2789       C  0.69269268  0.62967076  0.18434545    -0.04100
C2790       C  0.68908744  0.60605831  0.20512761    -0.01200
C2791       C  0.71708348  0.60793097  0.21912397     0.03800
C2792       C  0.74919636  0.63404869  0.21318342    -0.04100
C2793       C  0.75208296  0.65803578  0.19282274    -0.01200
C2794       C  0.72429562  0.65539323  0.17812623     0.03800
C2795       C  0.65642622  0.58043191  0.21279724     0.38400
C2796       C  0.78278176  0.68761946  0.18811164     0.38400
C2797       C  0.72827567  0.67982895  0.15660974     0.36800
C2798       C  0.71226630  0.58270928  0.23964749     0.36800
N2799       N  0.73147988  0.69939506  0.13966370    -0.38000
N2800       N  0.70686173  0.56185618  0.25582037    -0.38000
N2801       N  0.80509752  0.71269999  0.18232274    -0.37400
N2802       N  0.63028605  0.56017287  0.21890075    -0.37400
C2803       C  0.63186276  0.74208466  0.19443348    -0.04100
C2804       C  0.65114711  0.74421208  0.16902030    -0.01200
C2805       C  0.64888432  0.71550069  0.15597114     0.03800
C2806       C  0.62860106  0.68489543  0.16856229    -0.04100
C2807       C  0.60587529  0.68178562  0.19017695    -0.01200
C2808       C  0.60673838  0.71015842  0.20242968     0.03800
C2809       C  0.67574473  0.77539221  0.15740055     0.38400
C2810       C  0.58250132  0.64939364  0.20067828     0.38400
C2811       C  0.58274044  0.70591794  0.22444916     0.36800
C2812       C  0.66827285  0.71745629  0.13005785     0.36800
N2813       N  0.56329635  0.70091853  0.24228854    -0.38000
N2814       N  0.68340186  0.71906763  0.10914785    -0.38000
N2815       N  0.56396580  0.62352168  0.20903762    -0.37400
N2816       N  0.69519282  0.79943886  0.14664975    -0.37400
loop_ 
_geom_bond_atom_site_label_1 
_geom_bond_atom_site_label_2 
_geom_bond_distance 
_geom_bond_site_symmetry_2 
_ccdc_geom_bond_type 
C1            C2   1.401       .  A
C1            C6   1.407       .  A
C1          C663   1.482       .  S
C2            C3   1.395       .  A
C2            H7   1.084       .  S
C3            C4   1.400       .  A
C3          C694   1.481       .  S
C4            C5   1.403       .  A
C4            H8   1.084       .  S
C5            C6   1.407       .  A
C5          C677   1.492       .  S
C6            H9   1.083       .  S
C10          H11   1.093       .  S
C10          C16   1.564       .  S
C10          C15   1.543       .  S
C10          C14   1.537       .  S
C12          H13   1.092       .  S
C12          C18   1.564       .  S
C12          C17   1.564       .  S
C12          C19   1.532       .  S
C14          C17   1.390       .  D
C14         C621   1.534       .  S
C15          C18   1.405       .  D
C15         C593   1.537       .  S
C16          C19   1.375       .  D
C16         C635   1.504       .  S
C17         C680   1.526       .  S
C18         C607   1.526       .  S
C19         C652   1.531       .  S
C20          H21   1.089       .  S
C20          C26   1.577       .  S
C20          C25   1.560       .  S
C20          C24   1.525       .  S
C22          H23   1.092       .  S
C22          C28   1.528       .  S
C22          C27   1.549       .  S
C22          C29   1.537       .  S
C24          C27   1.369       .  D
C24         C568   1.503       .  S
C25          C28   1.389       .  D
C25         C579   1.527       .  S
C26          C29   1.406       .  D
C26         C537   1.555       .  S
C27         C554   1.498       .  S
C28         C691   1.522       .  S
C29         C523   1.523       .  S
C30          C35   1.399       .  A
C30        C1439   1.407       .  A
C30         C512   1.482       .  S
C31          C32   1.420       .  A
C31        C1438   1.407   1_455  A
C31          H36   1.080       .  S
C32        C1441   1.399   1_455  A
C32         C526   1.516       .  S
C33          C34   1.397       .  A
C33        C1440   1.398       .  A
C33          H37   1.075       .  S
C34          C35   1.393       .  A
C34         C610   1.478       .  S
C35          H38   1.083       .  S
C39          C44   1.406       .  A
C39         C744   1.417       .  A
C39         C495   1.495       .  S
C40          C41   1.426       .  A
C40         C743   1.421       .  A
C40          H45   1.080   1_565  S
C41         C746   1.400       .  A
C41         C649   1.531   1_565  S
C42          C43   1.399       .  A
C42         C745   1.397       .  A
C42          H46   1.079       .  S
C43          C44   1.401       .  A
C43         C551   1.499       .  S
C44          H47   1.083       .  S
C48          C53   1.405   1_655  A
C48        C1457   1.405       .  A
C48         C481   1.487       .  S
C49          C50   1.404       .  A
C49        C1456   1.405       .  A
C49          H54   1.084       .  S
C50        C1459   1.402       .  A
C50         C596   1.486       .  S
C51          C52   1.400   1_655  A
C51        C1458   1.402       .  A
C51        H1463   1.083       .  S
C52          C53   1.401       .  A
C52         C540   1.488       .  S
C53          H56   1.084       .  S
H55        C1459   1.083       .  S
C57          C62   1.414       .  A
C57         C762   1.398       .  A
C57         C467   1.486       .  S
C58          C59   1.387       .  A
C58         C761   1.398   1_545  A
C58          H63   1.084       .  S
C59         C764   1.396   1_545  A
C59         C638   1.476       .  S
C60          C61   1.409       .  A
C60         C763   1.396       .  A
C60          H64   1.078       .  S
C61          C62   1.416       .  A
C61         C565   1.520       .  S
C62          H65   1.081       .  S
C66          C67   1.412       .  A
C66          C71   1.405       .  A
C66         C453   1.492       .  S
C67          C68   1.416       .  A
C67          H72   1.082       .  S
C68          C69   1.408       .  A
C68         C624   1.528       .  S
C69          C70   1.407       .  A
C69          H73   1.077       .  S
C70          C71   1.399       .  A
C70         C582   1.495       .  S
C71          H74   1.083       .  S
O75         Ni81   1.926       .  S
O75          C96   1.270       .  A
O76         Ni99   1.902       .  S
O76          C85   1.263       .  A
O77         Ni81   1.916       .  S
O77       Ni1507   1.914   1_455  S
O77       Ni1501   1.909   1_455  S
O77         H804   0.967       .  S
C78         C411   1.490       .  S
C78          O95   1.272       .  A
C78          O87   1.275       .  A
O79         Ni98   1.919       .  S
O79          C85   1.268       .  A
O80         Ni98   1.904       .  S
O80         C786   1.266       .  A
Ni81         O86   1.906       .  S
Ni81        O788   1.928       .  S
C82         C425   1.484       .  S
C82         O784   1.266   1_545  A
C82         O796   1.273   1_545  A
O83       Ni2211   1.912   1_445  S
O83          C89   1.271       .  A
O84        Ni785   1.932   1_545  S
O84          C89   1.277       .  A
C85         C470   1.491       .  S
O86          C88   1.265       .  A
O87         Ni98   1.919       .  S
C88         C484   1.481   1_455  S
C88        O1502   1.270   1_455  A
C89         C456   1.492       .  S
H90          O91   0.968       .  S
O91         Ni99   1.908       .  S
O91         Ni93   1.913       .  S
O91         Ni98   1.914       .  S
O92         Ni93   1.943       .  S
O92         C786   1.274       .  A
Ni93         O95   1.912       .  S
Ni93       O1505   1.905       .  S
Ni93       O1485   1.908       .  S
O94         Ni99   1.932       .  S
O94        C1496   1.270       .  A
C96         C439   1.492       .  S
C96          O97   1.268       .  A
O97       Ni1501   1.906   1_455  S
Ni99       O2195   1.904       .  S
Ni99       O1485   1.913       .  S
H100        O781   0.966   1_545  S
O101      Ni1515   1.915   1_554  S
O101        C122   1.267       .  A
O102       Ni829   1.924   1_545  S
O102        C111   1.271       .  A
O103       Ni107   1.910       .  S
O103      Ni1533   1.914       .  S
O103      Ni1527   1.934   1_456  S
O103        H126   0.954       .  S
C104        C498   1.506       .  S
C104        O121   1.281       .  A
C104        O817   1.280       .  A
O105       Ni124   1.924       .  S
O105        C111   1.268       .  A
O106      Ni1532   1.901   1_454  S
O106        C108   1.265       .  A
Ni107       O110   1.923       .  S
Ni107      O1509   1.914   1_456  S
Ni107      O1520   1.907   1_455  S
C108        C666   1.486       .  S
C108        O822   1.270   1_545  A
O109      Ni1533   1.945       .  S
O109        C115   1.282       .  A
O110        C115   1.275       .  A
C111        C400   1.504       .  S
O112      Ni1515   1.907       .  S
O112        C114   1.268       .  A
O113       Ni124   1.924   1_554  S
O113        C808   1.279   1_545  A
C114        C372   1.493       .  S
C114        O120   1.274       .  A
C115        C383   1.496       .  S
H116        O117   0.959       .  S
O117       Ni125   1.921       .  S
O117       Ni119   1.907   1_556  S
O117       Ni828   1.908       .  S
O118      Ni1527   1.922   1_455  S
O118        C812   1.268       .  A
Ni119       O123   1.923       .  S
Ni119       O121   1.933       .  S
Ni119      O1526   1.923       .  S
Ni119      O1511   1.934   1_554  S
O120       Ni125   1.935       .  S
C122        C509   1.508       .  S
C122        O123   1.267       .  A
Ni124      O1514   1.902   1_556  S
Ni124       O821   1.904   1_545  S
Ni125       O806   1.922       .  S
Ni125      O1517   1.945       .  S
Ni125      O1511   1.915       .  S
C127        C132   1.410       .  A
C127       C1536   1.406       .  A
C127        C428   1.494       .  S
C128        C129   1.404       .  A
C128       C1535   1.405   1_455  A
C128        H133   1.083       .  S
C129       C1538   1.403   1_455  A
C129        C355   1.505       .  S
C130        C131   1.411       .  A
C130       C1537   1.403       .  A
C130        H134   1.081       .  S
C131        C132   1.410       .  A
C131        C344   1.519       .  S
C132        H135   1.081       .  S
C136        C141   1.404       .  A
C136       C1545   1.408       .  A
C136        C397   1.489       .  S
C137        C138   1.412       .  A
C137       C1544   1.408   1_455  A
C137        H142   1.082       .  S
C138       C1547   1.409   1_455  A
C138        C327   1.516       .  S
C139        C140   1.398       .  A
C139       C1546   1.409       .  A
C139        H143   1.078       .  S
C140        C141   1.399       .  A
C140        C316   1.488       .  S
C141        H144   1.084       .  S
C145        H146   1.090       .  S
C145        C151   1.575       .  S
C145        C150   1.524       .  S
C145        C149   1.559       .  S
C147        H148   1.095       .  S
C147        C153   1.565       .  S
C147        C152   1.538       .  S
C147        C154   1.550       .  S
C149        C152   1.383       .  D
C149        C341   1.533       .  S
C150        C153   1.372       .  D
C150        C257   1.497       .  S
C151        C154   1.404       .  D
C151        C285   1.551       .  S
C152        C313   1.517       .  S
C153        C271   1.516       .  S
C154        C302   1.535       .  S
C155        H156   1.091       .  S
C155        C161   1.577       .  S
C155        C160   1.524       .  S
C155        C159   1.567       .  S
C157        H158   1.099       .  S
C157        C163   1.564       .  S
C157        C162   1.529       .  S
C157        C164   1.553       .  S
C159        C162   1.384       .  D
C159        C243   1.522       .  S
C160        C163   1.372       .  D
C160        C358   1.512       .  S
C161        C164   1.406       .  D
C161        C218   1.557       .  S
C162        C229   1.523       .  S
C163        C330   1.505       .  S
C164        C204   1.537       .  S
C165        C166   1.404       .  A
C165        C170   1.413       .  A
C165        C442   1.495       .  S
C166        C167   1.395       .  A
C166        H875   1.084       .  S
C167        C168   1.394       .  A
C167        C992   1.474       .  S
C168        C169   1.398       .  A
C168        H172   1.084       .  S
C169        C170   1.410       .  A
C169        C246   1.489       .  S
C170        H173   1.083       .  S
H171        C870   1.084   1_545  S
C174        C175   1.415       .  A
C174        C179   1.408       .  A
C174        C414   1.489       .  S
C175        C176   1.409       .  A
C175        H180   1.083       .  S
C176        C177   1.399       .  A
C176        C215   1.509       .  S
C177        C178   1.401       .  A
C177        H181   1.083       .  S
C178        C179   1.401       .  A
C178        C260   1.498       .  S
C179        H182   1.083       .  S
C183        C184   1.409       .  A
C183        C188   1.408       .  A
C183        C369   1.490       .  S
C184        C185   1.409       .  A
C184        H189   1.083       .  S
C185        C186   1.407       .  A
C185        C274   1.508       .  S
C186        C187   1.399       .  A
C186        H190   1.083       .  S
C187        C188   1.403       .  A
C187        C201   1.492       .  S
C188        H191   1.083       .  S
C192        C193   1.417       .  A
C192        C197   1.410       .  A
C192        C386   1.506       .  S
C193        C194   1.419       .  A
C193        H198   1.076       .  S
C194        C195   1.408       .  A
C194        C232   1.534       .  S
C195        C196   1.400       .  A
C195        H199   1.072       .  S
C196        C197   1.409       .  A
C196       C1003   1.514       .  S
C197        H904   1.083       .  S
H200        C901   1.083   1_545  S
C201        C202   1.404       .  A
C201        C206   1.402       .  A
C202        C203   1.417       .  A
C202        C207   1.452       .  S
C203        C204   1.431       .  A
C203        C210   1.447       .  S
C204        C205   1.431       .  A
C205        C206   1.417       .  A
C205        C208   1.445       .  S
C206        C209   1.452       .  S
C207        N214   1.157       .  T
C208        N213   1.156       .  T
C209        N211   1.157       .  T
C210        N212   1.158       .  T
C215        C216   1.411       .  A
C215        C220   1.414       .  A
C216        C217   1.404       .  A
C216        C221   1.451       .  S
C217        C218   1.419       .  A
C217        C224   1.447       .  S
C218        C219   1.433       .  A
C219        C220   1.427       .  A
C219        C222   1.447       .  S
C220        C223   1.451       .  S
C221        N228   1.157       .  T
C222        N227   1.158       .  T
C223        N225   1.157       .  T
C224        N226   1.157       .  T
C229        C230   1.422       .  A
C229        C234   1.412       .  A
C230        C231   1.422       .  A
C230        C235   1.445       .  S
C231        C232   1.424       .  A
C231        C238   1.448       .  S
C232        C233   1.422       .  A
C233        C234   1.410       .  A
C233        C236   1.453       .  S
C234        C237   1.443       .  S
C235        N242   1.155       .  T
C236        N241   1.157       .  T
C237        N239   1.156       .  T
C238        N240   1.158       .  T
C243        C244   1.424       .  A
C243        C248   1.429       .  A
C244        C245   1.413       .  A
C244        C249   1.446       .  S
C245        C246   1.406       .  A
C245        C252   1.453       .  S
C246        C247   1.405       .  A
C247        C248   1.415       .  A
C247        C250   1.454       .  S
C248        C251   1.445       .  S
C249        N256   1.156       .  T
C250        N255   1.157       .  T
C251        N253   1.157       .  T
C252        N254   1.157       .  T
C257        C258   1.413       .  A
C257        C262   1.412       .  A
C258        C259   1.416       .  A
C258        C263   1.447       .  S
C259        C260   1.416       .  A
C259        C266   1.448       .  S
C260        C261   1.412       .  A
C261        C262   1.404       .  A
C261        C264   1.455       .  S
C262        C265   1.442       .  S
C263        N270   1.157       .  T
C264        N269   1.157       .  T
C265        N267   1.155       .  T
C266        N268   1.157       .  T
C271        C272   1.418       .  A
C271        C276   1.411       .  A
C272        C273   1.421       .  A
C272        C277   1.442       .  S
C273        C274   1.417       .  A
C273        C280   1.451       .  S
C274        C275   1.412       .  A
C275        C276   1.409       .  A
C275        C278   1.454       .  S
C276        C279   1.437       .  S
C277        N284   1.155       .  T
C278        N283   1.157       .  T
C279        N281   1.153       .  T
C280        N282   1.157       .  T
C285        C286   1.430       .  A
C285        C290   1.433       .  A
C286        C287   1.412       .  A
C286        C291   1.446       .  S
C287        C288   1.399       .  A
C287        C294   1.451       .  S
C288        C289   1.401       .  A
C288        C871   1.475   1_545  S
C289        C290   1.409       .  A
C289        C292   1.455       .  S
C290        C293   1.447       .  S
C291        N298   1.158       .  T
C292       N1001   1.157   1_545  T
C293        N295   1.157       .  T
C294        N296   1.157       .  T
N297        C996   1.157       .  T
C299        C300   1.416       .  A
C299        C304   1.410       .  A
C299        C900   1.510   1_545  S
C300        C301   1.410       .  A
C300       C1009   1.455   1_545  S
C301        C302   1.423       .  A
C301        C308   1.447       .  S
C302        C303   1.433       .  A
C303        C304   1.419       .  A
C303        C306   1.448       .  S
C304        C307   1.450       .  S
C305       C1004   1.453       .  S
C305        N312   1.157       .  T
C306        N311   1.157       .  T
C307        N309   1.156       .  T
C308        N310   1.156       .  T
C313        C314   1.420       .  A
C313        C318   1.423       .  A
C314        C315   1.413       .  A
C314        C319   1.447       .  S
C315        C316   1.406       .  A
C315        C322   1.450       .  S
C316        C317   1.409       .  A
C317        C318   1.413       .  A
C317        C320   1.452       .  S
C318        C321   1.448       .  S
C319        N326   1.156       .  T
C320        N325   1.157       .  T
C321        N323   1.157       .  T
C322        N324   1.157       .  T
C327        C328   1.422       .  A
C327        C332   1.419       .  A
C328        C329   1.418       .  A
C328        C333   1.450       .  S
C329        C330   1.411       .  A
C329        C336   1.444       .  S
C330        C331   1.408       .  A
C331        C332   1.410       .  A
C331        C334   1.445       .  S
C332        C335   1.452       .  S
C333        N340   1.157       .  T
C334        N339   1.156       .  T
C335       N1745   1.157       .  T
C336        N338   1.155       .  T
N337       C1743   1.157       .  T
C341        C342   1.423       .  A
C341        C346   1.424       .  A
C342        C343   1.421       .  A
C342        C347   1.444       .  S
C343        C344   1.418       .  A
C343        C350   1.451       .  S
C344        C345   1.414       .  A
C345        C346   1.409       .  A
C345        C348   1.454       .  S
C346        C349   1.444       .  S
C347        N354   1.155       .  T
C348        N353   1.157       .  T
C349        N351   1.156       .  T
C350        N352   1.158       .  T
C355        C356   1.419       .  A
C355        C360   1.414       .  A
C356        C357   1.415       .  A
C356        C361   1.450       .  S
C357        C358   1.411       .  A
C357        C364   1.447       .  S
C358        C359   1.416       .  A
C359        C360   1.416       .  A
C359        C362   1.444       .  S
C360        C363   1.452       .  S
C361        N368   1.158       .  T
C362        N367   1.156       .  T
C363        N365   1.157       .  T
C364        N366   1.157       .  T
C369        C370   1.411       .  A
C369        C374   1.411       .  A
C370        C371   1.414       .  A
C370        C375   1.450       .  S
C371        C372   1.416       .  A
C371        C378   1.451       .  S
C372        C373   1.414       .  A
C373        C374   1.412       .  A
C373        C376   1.448       .  S
C374        C377   1.451       .  S
C375        N382   1.157       .  T
C376        N381   1.156       .  T
C377        N379   1.157       .  T
C378        N380   1.157       .  T
C383        C384   1.415       .  A
C383        C388   1.412       .  A
C384        C385   1.417       .  A
C384        C389   1.450       .  S
C385        C386   1.415       .  A
C385        C392   1.451       .  S
C386        C387   1.415       .  A
C387        C388   1.418       .  A
C387        C390   1.448       .  S
C388        C391   1.450       .  S
C389       N1804   1.157       .  T
C390       N1099   1.157       .  T
C391       N1097   1.157       .  T
C392        N394   1.157       .  T
N393       C1095   1.157       .  T
N395       C1094   1.156       .  T
N396       C1797   1.157       .  T
C397        C402   1.407       .  A
C397       C1806   1.411       .  A
C398        C399   1.414       .  A
C398       C1805   1.411   1_455  A
C398        C403   1.451       .  S
C399       C1808   1.419   1_455  A
C399        C406   1.450       .  S
C400        C401   1.426       .  A
C400       C1807   1.419       .  A
C401        C402   1.413       .  A
C401        C404   1.452       .  S
C402        C405   1.451       .  S
C403        N410   1.157       .  T
C404        N409   1.158       .  T
C405        N407   1.157       .  T
C406        N408   1.157       .  T
C411        C412   1.416       .  A
C411        C416   1.415       .  A
C412        C413   1.409       .  A
C412        C417   1.453       .  S
C413        C414   1.410       .  A
C413        C420   1.450       .  S
C414        C415   1.414       .  A
C415        C416   1.413       .  A
C415        C418   1.450       .  S
C416        C419   1.451       .  S
C417        N424   1.157       .  T
C418        N423   1.157       .  T
C419        N421   1.158       .  T
C420        N422   1.157       .  T
C425        C426   1.410       .  A
C425        C430   1.412       .  A
C426        C427   1.411       .  A
C426       C1839   1.448   1_545  S
C427        C428   1.413       .  A
C427       C1842   1.451       .  S
C428        C429   1.416       .  A
C429        C430   1.414       .  A
C429        C432   1.451       .  S
C430        C433   1.451       .  S
C431       C1834   1.447   1_565  S
C431       N1142   1.156       .  T
C432        N437   1.157       .  T
C433        N435   1.158       .  T
C434       C1835   1.451       .  S
C434        N436   1.157       .  T
N438       C1135   1.156       .  T
C439        C440   1.414       .  A
C439        C444   1.419       .  A
C440        C441   1.411       .  A
C440        C445   1.453       .  S
C441        C442   1.418       .  A
C441        C448   1.451       .  S
C442        C443   1.413       .  A
C443        C444   1.412       .  A
C443        C446   1.451       .  S
C444        C447   1.452       .  S
C445        N452   1.158       .  T
C446        N451   1.157       .  T
C447        N449   1.158       .  T
C448        N450   1.157       .  T
C453        C454   1.413       .  A
C453        C458   1.413       .  A
C454        C455   1.415       .  A
C454        C459   1.450       .  S
C455        C456   1.415       .  A
C455        C462   1.450       .  S
C456        C457   1.414       .  A
C457        C458   1.410       .  A
C457        C460   1.453       .  S
C458        C461   1.451       .  S
C459        N466   1.157       .  T
C460        N465   1.157       .  T
C461        N463   1.157       .  T
C462       N1872   1.157   1_455  T
N464       C1870   1.157       .  T
C467        C468   1.411       .  A
C467       C1176   1.413       .  A
C468        C469   1.411       .  A
C468        C473   1.451       .  S
C469        C470   1.420       .  A
C469        C476   1.452       .  S
C470       C1175   1.417       .  A
C471        C472   1.409   1_545  A
C471       C1174   1.421   1_545  A
C471        C474   1.453       .  S
C472       C1171   1.413       .  A
C472        C475   1.453   1_565  S
C473        N480   1.157       .  T
C474        N479   1.158       .  T
C475        N477   1.157       .  T
C476        N478   1.158       .  T
C481        C486   1.411   1_655  A
C481       C1890   1.414       .  A
C482        C483   1.415       .  A
C482       C1889   1.414       .  A
C482        C487   1.450       .  S
C483       C1892   1.412       .  A
C483        C490   1.450       .  S
C484        C485   1.410   1_655  A
C484       C1891   1.412       .  A
C485        C486   1.407       .  A
C485        C488   1.448       .  S
C486        C489   1.452       .  S
C487        N494   1.157       .  T
C488        N493   1.156       .  T
C489        N491   1.157       .  T
C490        N492   1.158       .  T
C495        C496   1.410       .  A
C495        C500   1.413       .  A
C496        C497   1.411       .  A
C496        C501   1.452       .  S
C497        C498   1.422       .  A
C497        C504   1.453       .  S
C498        C499   1.419       .  A
C499        C500   1.417       .  A
C499       C1206   1.451       .  S
C500       C1207   1.449       .  S
C501        N508   1.157       .  T
C502       C1203   1.450       .  S
C502        N507   1.158       .  T
C503       C1204   1.448       .  S
C503        N505   1.157       .  T
C504        N506   1.157       .  T
C509        C510   1.428       .  A
C509        C514   1.425       .  A
C510        C511   1.418       .  A
C510       C1923   1.449       .  S
C511        C512   1.406       .  A
C511       C1926   1.451       .  S
C512        C513   1.406       .  A
C513        C514   1.405       .  A
C513        C516   1.454       .  S
C514        C517   1.453       .  S
C515       C1918   1.449   1_455  S
C515        N522   1.157       .  T
C516        N521   1.157       .  T
C517        N519   1.157   1_554  T
C518       C1919   1.451   1_455  S
C518        N520   1.157       .  T
C523        C524   1.418       .  A
C523        C528   1.434       .  A
C524        C525   1.408       .  A
C524        C529   1.450       .  S
C525        C526   1.423       .  A
C525        C532   1.450       .  S
C526        C527   1.406       .  A
C527        C528   1.414       .  A
C527        C530   1.454       .  S
C528        C531   1.447       .  S
C529        N536   1.156       .  T
C530        N535   1.157       .  T
C531        N533   1.157       .  T
C532       N1942   1.158   1_455  T
N534       C1940   1.158       .  T
C537        C538   1.433       .  A
C537        C542   1.433       .  A
C538        C539   1.414       .  A
C538        C543   1.447       .  S
C539        C540   1.403       .  A
C539        C546   1.453       .  S
C540        C541   1.404       .  A
C541        C542   1.415       .  A
C541        C544   1.454       .  S
C542        C545   1.445       .  S
C543        N550   1.158       .  T
C544        N549   1.157       .  T
C545        N547   1.157       .  T
C546        N548   1.157       .  T
C551        C552   1.411       .  A
C551        C556   1.416       .  A
C552        C553   1.405       .  A
C552        C557   1.455       .  S
C553        C554   1.410       .  A
C553        C560   1.441       .  S
C554        C555   1.411       .  A
C555        C556   1.413       .  A
C555        C558   1.444       .  S
C556        C559   1.447       .  S
C557        N564   1.158       .  T
C558        N563   1.155       .  T
C559        N561   1.156       .  T
C560        N562   1.154       .  T
C565        C566   1.424       .  A
C565        C570   1.422       .  A
C566        C567   1.418       .  A
C566        C571   1.448       .  S
C567        C568   1.411       .  A
C567        C574   1.448       .  S
C568        C569   1.409       .  A
C569        C570   1.412       .  A
C569        C572   1.448       .  S
C570        C573   1.452       .  S
C571        N578   1.157       .  T
C572        N577   1.156       .  T
C573        N575   1.157       .  T
C574        N576   1.157       .  T
C579        C580   1.420       .  A
C579        C584   1.431       .  A
C580        C581   1.397       .  A
C580        C585   1.443       .  S
C581        C582   1.400       .  A
C581        C588   1.451       .  S
C582        C583   1.407       .  A
C583        C584   1.424       .  A
C583        C586   1.449       .  S
C584        C587   1.442       .  S
C585        N592   1.157       .  T
C586        N591   1.157       .  T
C587        N589   1.156       .  T
C588        N590   1.157       .  T
C593        C594   1.434       .  A
C593        C598   1.431       .  A
C594        C595   1.414       .  A
C594        C599   1.449       .  S
C595        C596   1.401       .  A
C595        C602   1.454       .  S
C596        C597   1.403       .  A
C597        C598   1.416       .  A
C597        C600   1.455       .  S
C598        C601   1.443       .  S
C599        N606   1.157       .  T
C600        N605   1.157       .  T
C601        N603   1.156       .  T
C602        N604   1.157       .  T
C607        C608   1.439       .  A
C607        C612   1.417       .  A
C608        C609   1.416       .  A
C608        C613   1.447       .  S
C609        C610   1.401       .  A
C609        C616   1.452       .  S
C610        C611   1.403       .  A
C611        C612   1.391       .  A
C611        C614   1.451       .  S
C612        C615   1.449       .  S
C613        N620   1.158       .  T
C614        N619   1.156       .  T
C615        N617   1.157       .  T
C616        N618   1.157       .  T
C621        C622   1.400       .  A
C621        C626   1.425       .  A
C622        C623   1.406       .  A
C622        C627   1.445       .  S
C623        C624   1.426       .  A
C623        C630   1.439       .  S
C624        C625   1.421       .  A
C625        C626   1.427       .  A
C625        C628   1.451       .  S
C626        C629   1.445       .  S
C627        N634   1.154       .  T
C628        N633   1.157       .  T
C629        N631   1.158       .  T
C630        N632   1.154       .  T
C635        C636   1.415       .  A
C635        C640   1.426       .  A
C636        C637   1.405       .  A
C636        C641   1.442       .  S
C637        C638   1.404       .  A
C637       C1348   1.452       .  S
C638        C639   1.401       .  A
C639        C640   1.410       .  A
C639        C642   1.452       .  S
C640        C643   1.445       .  S
C641        N648   1.156       .  T
C642        N647   1.157       .  T
C643        N645   1.156       .  T
C644       C1341   1.452       .  S
C644        N646   1.157       .  T
C649        C650   1.431       .  A
C649        C654   1.416       .  A
C650        C651   1.415       .  A
C650        C655   1.453   1_545  S
C651        C652   1.411       .  A
C651        C658   1.448       .  S
C652        C653   1.426       .  A
C653        C654   1.423       .  A
C653        C656   1.443       .  S
C654        C657   1.452       .  S
C655       N1366   1.157       .  T
C656        N661   1.156       .  T
C657        N659   1.157       .  T
C658        N660   1.156       .  T
N662       C1359   1.157       .  T
C663        C664   1.411       .  A
C663        C668   1.407       .  A
C664        C665   1.412       .  A
C664        C669   1.450       .  S
C665        C666   1.414       .  A
C665        C672   1.451       .  S
C666        C667   1.415       .  A
C667        C668   1.409       .  A
C667        C670   1.446       .  S
C668        C671   1.452       .  S
C669        N676   1.157       .  T
C670       N2083   1.155   1_445  T
C671        N673   1.157       .  T
C672        N674   1.157   1_554  T
N675       C2078   1.155   1_565  T
C677        C678   1.407       .  A
C677        C682   1.404       .  A
C678        C679   1.420       .  A
C678        C683   1.451       .  S
C679        C680   1.423       .  A
C679        C686   1.444       .  S
C680        C681   1.423       .  A
C681        C682   1.412       .  A
C681        C684   1.439       .  S
C682        C685   1.455       .  S
C683        N690   1.157       .  T
C684        N689   1.155       .  T
C685        N687   1.157       .  T
C686        N688   1.155       .  T
C691        C692   1.431       .  A
C691        C696   1.422       .  A
C692        C693   1.413       .  A
C692        C697   1.448       .  S
C693        C694   1.403       .  A
C693        C700   1.453       .  S
C694        C695   1.404       .  A
C695        C696   1.412       .  A
C695        C698   1.451       .  S
C696        C699   1.446       .  S
C697        N704   1.157       .  T
C698        N703   1.157       .  T
C699        N701   1.156       .  T
C700        N702   1.157       .  T
C705        C706   1.400       .  A
C705        C710   1.406       .  A
C705       C1367   1.476       .  S
C706        C707   1.392       .  A
C706        H711   1.084       .  S
C707        C708   1.399       .  A
C707       C1398   1.478       .  S
C708        C709   1.405       .  A
C708        H712   1.084       .  S
C709        C710   1.406       .  A
C709       C1381   1.494       .  S
C710        H713   1.083       .  S
C714        H715   1.092       .  S
C714        C720   1.559       .  S
C714        C719   1.541       .  S
C714        C718   1.529       .  S
C716        H717   1.096       .  S
C716        C722   1.566       .  S
C716        C721   1.562       .  S
C716        C723   1.538       .  S
C718        C721   1.389       .  D
C718       C1325   1.520       .  S
C719        C722   1.402       .  D
C719       C1297   1.542       .  S
C720        C723   1.379       .  D
C720       C1339   1.502       .  S
C721       C1384   1.524       .  S
C722       C1311   1.520       .  S
C723       C1356   1.537       .  S
C724        H725   1.089       .  S
C724        C730   1.582       .  S
C724        C729   1.560       .  S
C724        C728   1.526       .  S
C726        H727   1.090       .  S
C726        C732   1.529       .  S
C726        C731   1.550       .  S
C726        C733   1.533       .  S
C728        C731   1.368       .  D
C728       C1272   1.501       .  S
C729        C732   1.390       .  D
C729       C1283   1.532       .  S
C730        C733   1.404       .  D
C730       C1241   1.553       .  S
C731       C1258   1.502       .  S
C732       C1395   1.519       .  S
C733       C1227   1.525       .  S
C734       C2143   1.406       .  A
C734        C739   1.399       .  A
C734       C1216   1.483       .  S
C735       C2142   1.406   1_455  A
C735        C736   1.420       .  A
C735        H740   1.081       .  S
C736       C2145   1.398   1_455  A
C736       C1230   1.515       .  S
C737       C2144   1.399       .  A
C737        C738   1.400       .  A
C737        H741   1.075       .  S
C738        C739   1.393       .  A
C738       C1314   1.480       .  S
C739        H742   1.083       .  S
C743        C748   1.404       .  A
C743       C1199   1.504       .  S
C744        C745   1.417       .  A
C744        H749   1.081       .  S
C745       C1353   1.519       .  S
C746        C747   1.400       .  A
C746        H750   1.077       .  S
C747        C748   1.401       .  A
C747       C1255   1.499       .  S
C748        H751   1.083       .  S
C752       C2161   1.407       .  A
C752        C757   1.408   1_655  A
C752       C1185   1.493       .  S
C753       C2160   1.407       .  A
C753        C754   1.405       .  A
C753        H758   1.083       .  S
C754       C2163   1.402       .  A
C754       C1300   1.488       .  S
C755       C2162   1.402       .  A
C755        C756   1.400   1_655  A
C755       H2167   1.082       .  S
C756        C757   1.402       .  A
C756       C1244   1.491       .  S
C757        H760   1.084       .  S
H759       C2163   1.082       .  S
C761        C766   1.415       .  A
C761       C1171   1.486       .  S
C762        C763   1.387       .  A
C762        H767   1.084       .  S
C763       C1342   1.479       .  S
C764        C765   1.408       .  A
C764        H768   1.078       .  S
C765        C766   1.415       .  A
C765       C1269   1.516       .  S
C766        H769   1.081       .  S
C770        C771   1.409       .  A
C770        C775   1.407       .  A
C770       C1157   1.489       .  S
C771        C772   1.412       .  A
C771        H776   1.082       .  S
C772        C773   1.406       .  A
C772       C1328   1.518       .  S
C773        C774   1.405       .  A
C773        H777   1.079       .  S
C774        C775   1.400       .  A
C774       C1286   1.496       .  S
C775        H778   1.083       .  S
O779       Ni785   1.929       .  S
O779        C800   1.271       .  A
O780       Ni803   1.905       .  S
O780        C789   1.265       .  A
O781       Ni785   1.916       .  S
O781      Ni2211   1.917   1_455  S
O781      Ni2205   1.915   1_455  S
C782       C1115   1.495       .  S
C782        O799   1.275       .  A
C782        O791   1.276       .  A
O783       Ni802   1.917       .  S
O783        C789   1.266       .  A
O784       Ni802   1.904       .  S
Ni785       O790   1.908       .  S
C786       C1129   1.486       .  S
O787      Ni1507   1.903   1_455  S
O787        C793   1.270       .  A
O788        C793   1.277       .  A
C789       C1174   1.494       .  S
O790        C792   1.267       .  A
O791       Ni802   1.923       .  S
C792       C1188   1.483       .  S
C792       O2206   1.272   1_455  A
C793       C1160   1.486       .  S
H794        O795   0.968       .  S
O795       Ni803   1.910       .  S
O795       Ni797   1.910       .  S
O795       Ni802   1.915       .  S
O796       Ni797   1.939       .  S
Ni797      O2209   1.912       .  S
Ni797       O799   1.918       .  S
Ni797      O2189   1.916       .  S
O798       Ni803   1.937       .  S
O798       C2200   1.272       .  A
C800       C1143   1.499       .  S
C800        O801   1.269       .  A
O801      Ni2205   1.913   1_455  S
Ni803      O1491   1.911   1_565  S
Ni803      O2189   1.917       .  S
O805      Ni2219   1.914   1_554  S
O805        C826   1.268       .  A
O806        C815   1.272       .  A
O807       Ni811   1.912       .  S
O807      Ni2237   1.914       .  S
O807      Ni2231   1.941   1_456  S
O807        H830   0.954       .  S
C808       C1202   1.518       .  S
C808        O825   1.287       .  A
O809       Ni828   1.923       .  S
O809        C815   1.268       .  A
O810      Ni2236   1.901   1_454  S
O810        C812   1.265       .  A
Ni811      O2213   1.915   1_456  S
Ni811       O814   1.928       .  S
Ni811      O2224   1.912   1_455  S
C812       C1370   1.479       .  S
O813      Ni2237   1.945       .  S
O813        C819   1.281       .  A
O814        C819   1.276       .  A
C815       C1104   1.503       .  S
O816      Ni2219   1.911       .  S
O816        C818   1.269       .  A
O817       Ni828   1.927   1_554  S
C818       C1076   1.497       .  S
C818        O824   1.274       .  A
C819       C1087   1.498       .  S
H820        O821   0.959       .  S
O821       Ni829   1.924       .  S
O821       Ni823   1.907   1_556  S
O822      Ni2231   1.930   1_455  S
Ni823      O2230   1.929       .  S
Ni823       O827   1.927       .  S
Ni823       O825   1.953       .  S
Ni823      O2215   1.942   1_554  S
O824       Ni829   1.936       .  S
C826       C1213   1.509       .  S
C826        O827   1.270       .  A
Ni828      O2218   1.902   1_556  S
Ni829      O2221   1.945       .  S
Ni829      O2215   1.914       .  S
C831       C2240   1.408       .  A
C831        C836   1.409       .  A
C831       C1132   1.494       .  S
C832       C2239   1.408   1_455  A
C832        C833   1.406       .  A
C832        H837   1.083       .  S
C833       C2242   1.402   1_455  A
C833       C1059   1.506       .  S
C834       C2241   1.402       .  A
C834        C835   1.409       .  A
C834        H838   1.082       .  S
C835        C836   1.410       .  A
C835       C1048   1.514       .  S
C836        H839   1.082       .  S
C840       C2249   1.405       .  A
C840        C845   1.405       .  A
C840       C1101   1.485       .  S
C841       C2248   1.405   1_455  A
C841        C842   1.409       .  A
C841        H846   1.082       .  S
C842       C2251   1.408   1_455  A
C842       C1031   1.510       .  S
C843       C2250   1.408       .  A
C843        C844   1.397       .  A
C843        H847   1.079       .  S
C844        C845   1.399       .  A
C844       C1020   1.486       .  S
C845        H848   1.084       .  S
C849        H850   1.090       .  S
C849        C855   1.574       .  S
C849        C854   1.523       .  S
C849        C853   1.561       .  S
C851        H852   1.095       .  S
C851        C857   1.566       .  S
C851        C856   1.539       .  S
C851        C858   1.549       .  S
C853        C856   1.383       .  D
C853       C1045   1.531       .  S
C854        C857   1.371       .  D
C854        C961   1.500       .  S
C855        C858   1.404       .  D
C855        C989   1.548       .  S
C856       C1017   1.518       .  S
C857        C975   1.515       .  S
C858       C1006   1.537       .  S
C859        H860   1.092       .  S
C859        C865   1.576       .  S
C859        C864   1.524       .  S
C859        C863   1.567       .  S
C861        H862   1.099       .  S
C861        C867   1.563       .  S
C861        C866   1.528       .  S
C861        C868   1.548       .  S
C863        C866   1.383       .  D
C863        C947   1.516       .  S
C864        C867   1.371       .  D
C864       C1062   1.513       .  S
C865        C868   1.405       .  D
C865        C922   1.555       .  S
C866        C933   1.525       .  S
C867       C1034   1.501       .  S
C868        C908   1.534       .  S
C869        C870   1.405       .  A
C869        C874   1.412       .  A
C869       C1146   1.498       .  S
C870        C871   1.397       .  A
C871        C872   1.394       .  A
C872        C873   1.397       .  A
C872        H876   1.085       .  S
C873        C874   1.410       .  A
C873        C950   1.486       .  S
C874        H877   1.083       .  S
C878        C879   1.416       .  A
C878        C883   1.409       .  A
C878       C1118   1.491       .  S
C879        C880   1.409       .  A
C879        H884   1.083       .  S
C880        C881   1.399       .  A
C880        C919   1.508       .  S
C881        C882   1.400       .  A
C881        H885   1.083       .  S
C882        C883   1.402       .  A
C882        C964   1.499       .  S
C883        H886   1.083       .  S
C887        C888   1.409       .  A
C887        C892   1.409       .  A
C887       C1073   1.493       .  S
C888        C889   1.411       .  A
C888        H893   1.083       .  S
C889        C890   1.408       .  A
C889        C978   1.513       .  S
C890        C891   1.401       .  A
C890        H894   1.082       .  S
C891        C892   1.404       .  A
C891        C905   1.493       .  S
C892        H895   1.083       .  S
C896        C897   1.417       .  A
C896        C901   1.410       .  A
C896       C1090   1.510       .  S
C897        C898   1.422       .  A
C897        H902   1.075       .  S
C898        C899   1.407       .  A
C898        C936   1.537       .  S
C899        C900   1.399       .  A
C899        H903   1.071       .  S
C900        C901   1.408       .  A
C905        C906   1.406       .  A
C905        C910   1.403       .  A
C906        C907   1.416       .  A
C906        C911   1.452       .  S
C907        C908   1.429       .  A
C907        C914   1.447       .  S
C908        C909   1.429       .  A
C909        C910   1.416       .  A
C909        C912   1.445       .  S
C910        C913   1.452       .  S
C911        N918   1.157       .  T
C912        N917   1.156       .  T
C913        N915   1.157       .  T
C914        N916   1.158       .  T
C919        C920   1.410       .  A
C919        C924   1.415       .  A
C920        C921   1.402       .  A
C920        C925   1.450       .  S
C921        C922   1.416       .  A
C921        C928   1.446       .  S
C922        C923   1.433       .  A
C923        C924   1.429       .  A
C923        C926   1.447       .  S
C924        C927   1.450       .  S
C925        N932   1.157       .  T
C926        N931   1.158       .  T
C927        N929   1.157       .  T
C928        N930   1.157       .  T
C933        C934   1.422       .  A
C933        C938   1.413       .  A
C934        C935   1.421       .  A
C934        C939   1.444       .  S
C935        C936   1.424       .  A
C935        C942   1.448       .  S
C936        C937   1.423       .  A
C937        C938   1.411       .  A
C937        C940   1.453       .  S
C938        C941   1.443       .  S
C939        N946   1.155       .  T
C940        N945   1.158       .  T
C941        N943   1.156       .  T
C942        N944   1.158       .  T
C947        C948   1.422       .  A
C947        C952   1.426       .  A
C948        C949   1.412       .  A
C948        C953   1.447       .  S
C949        C950   1.407       .  A
C949        C956   1.453       .  S
C950        C951   1.406       .  A
C951        C952   1.413       .  A
C951        C954   1.454       .  S
C952        C955   1.446       .  S
C953        N960   1.156       .  T
C954        N959   1.157       .  T
C955        N957   1.157       .  T
C956        N958   1.157       .  T
C961        C962   1.412       .  A
C961        C966   1.413       .  A
C962        C963   1.416       .  A
C962        C967   1.446       .  S
C963        C964   1.416       .  A
C963        C970   1.448       .  S
C964        C965   1.413       .  A
C965        C966   1.405       .  A
C965        C968   1.456       .  S
C966        C969   1.443       .  S
C967        N974   1.157       .  T
C968        N973   1.157       .  T
C969        N971   1.156       .  T
C970        N972   1.157       .  T
C975        C976   1.417       .  A
C975        C980   1.410       .  A
C976        C977   1.421       .  A
C976        C981   1.442       .  S
C977        C978   1.419       .  A
C977        C984   1.452       .  S
C978        C979   1.415       .  A
C979        C980   1.410       .  A
C979        C982   1.453       .  S
C980        C983   1.438       .  S
C981        N988   1.155       .  T
C982        N987   1.157       .  T
C983        N985   1.153       .  T
C984        N986   1.158       .  T
C989        C990   1.431       .  A
C989        C994   1.433       .  A
C990        C991   1.412       .  A
C990        C995   1.446       .  S
C991        C992   1.399       .  A
C991        C998   1.451       .  S
C992        C993   1.401       .  A
C993        C994   1.408       .  A
C993        C996   1.454       .  S
C994        C997   1.447       .  S
C995       N1002   1.158       .  T
C997        N999   1.157       .  T
C998       N1000   1.157       .  T
C1003      C1004   1.416       .  A
C1003      C1008   1.413       .  A
C1004      C1005   1.410       .  A
C1005      C1006   1.422       .  A
C1005      C1012   1.448       .  S
C1006      C1007   1.433       .  A
C1007      C1008   1.420       .  A
C1007      C1010   1.447       .  S
C1008      C1011   1.451       .  S
C1009      N1016   1.157       .  T
C1010      N1015   1.157       .  T
C1011      N1013   1.157       .  T
C1012      N1014   1.156       .  T
C1017      C1018   1.421       .  A
C1017      C1022   1.423       .  A
C1018      C1019   1.413       .  A
C1018      C1023   1.447       .  S
C1019      C1020   1.406       .  A
C1019      C1026   1.451       .  S
C1020      C1021   1.409       .  A
C1021      C1022   1.413       .  A
C1021      C1024   1.452       .  S
C1022      C1025   1.448       .  S
C1023      N1030   1.156       .  T
C1024      N1029   1.157       .  T
C1025      N1027   1.157       .  T
C1026      N1028   1.157       .  T
C1031      C1032   1.421       .  A
C1031      C1036   1.419       .  A
C1032      C1033   1.415       .  A
C1032      C1037   1.451       .  S
C1033      C1034   1.409       .  A
C1033      C1040   1.444       .  S
C1034      C1035   1.408       .  A
C1035      C1036   1.409       .  A
C1035      C1038   1.445       .  S
C1036      C1039   1.453       .  S
C1037      N1044   1.157       .  T
C1038      N1043   1.156       .  T
C1039      N2449   1.157       .  T
C1040      N1042   1.155       .  T
N1041      C2447   1.157       .  T
C1045      C1046   1.421       .  A
C1045      C1050   1.426       .  A
C1046      C1047   1.418       .  A
C1046      C1051   1.443       .  S
C1047      C1048   1.415       .  A
C1047      C1054   1.450       .  S
C1048      C1049   1.414       .  A
C1049      C1050   1.410       .  A
C1049      C1052   1.455       .  S
C1050      C1053   1.443       .  S
C1051      N1058   1.156       .  T
C1052      N1057   1.157       .  T
C1053      N1055   1.156       .  T
C1054      N1056   1.157       .  T
C1059      C1060   1.418       .  A
C1059      C1064   1.415       .  A
C1060      C1061   1.414       .  A
C1060      C1065   1.450       .  S
C1061      C1062   1.411       .  A
C1061      C1068   1.446       .  S
C1062      C1063   1.415       .  A
C1063      C1064   1.417       .  A
C1063      C1066   1.444       .  S
C1064      C1067   1.452       .  S
C1065      N1072   1.158       .  T
C1066      N1071   1.156       .  T
C1067      N1069   1.157       .  T
C1068      N1070   1.157       .  T
C1073      C1074   1.411       .  A
C1073      C1078   1.412       .  A
C1074      C1075   1.416       .  A
C1074      C1079   1.450       .  S
C1075      C1076   1.417       .  A
C1075      C1082   1.450       .  S
C1076      C1077   1.415       .  A
C1077      C1078   1.413       .  A
C1077      C1080   1.448       .  S
C1078      C1081   1.451       .  S
C1079      N1086   1.157       .  T
C1080      N1085   1.156       .  T
C1081      N1083   1.157       .  T
C1082      N1084   1.157       .  T
C1087      C1088   1.415       .  A
C1087      C1092   1.411       .  A
C1088      C1089   1.420       .  A
C1088      C1093   1.449       .  S
C1089      C1090   1.418       .  A
C1089      C1096   1.451       .  S
C1090      C1091   1.416       .  A
C1091      C1092   1.418       .  A
C1091      C1094   1.447   1_565  S
C1092      C1095   1.451   1_565  S
C1093      N2508   1.157       .  T
C1096      N1098   1.158       .  T
N1100      C2501   1.157       .  T
C1101      C2510   1.410       .  A
C1101      C1106   1.405       .  A
C1102      C2509   1.410   1_455  A
C1102      C1103   1.412       .  A
C1102      C1107   1.451       .  S
C1103      C2512   1.419       .  A
C1103      C1110   1.450       .  S
C1104      C2511   1.419       .  A
C1104      C1105   1.426       .  A
C1105      C1106   1.412       .  A
C1105      C1108   1.452       .  S
C1106      C1109   1.452       .  S
C1107      N1114   1.157       .  T
C1108      N1113   1.158       .  T
C1109      N1111   1.157       .  T
C1110      N1112   1.157       .  T
C1115      C1116   1.419       .  A
C1115      C1120   1.417       .  A
C1116      C1117   1.412       .  A
C1116      C1121   1.452       .  S
C1117      C1118   1.410       .  A
C1117      C1124   1.450       .  S
C1118      C1119   1.413       .  A
C1119      C1120   1.413       .  A
C1119      C1122   1.450       .  S
C1120      C1123   1.451       .  S
C1121      N1128   1.158       .  T
C1122      N1127   1.157       .  T
C1123      N1125   1.157       .  T
C1124      N1126   1.157       .  T
C1129      C1130   1.411       .  A
C1129      C1134   1.412       .  A
C1130      C1131   1.412       .  A
C1130      C2543   1.447       .  S
C1131      C1132   1.413       .  A
C1131      C2546   1.450       .  S
C1132      C1133   1.415       .  A
C1133      C1134   1.414       .  A
C1133      C1136   1.450       .  S
C1134      C1137   1.451       .  S
C1135      C2538   1.447       .  S
C1136      N1141   1.157       .  T
C1137      N1139   1.157       .  T
C1138      C2539   1.450       .  S
C1138      N1140   1.157       .  T
C1143      C1144   1.416       .  A
C1143      C1148   1.420       .  A
C1144      C1145   1.413       .  A
C1144      C1149   1.452       .  S
C1145      C1146   1.418       .  A
C1145      C1152   1.452       .  S
C1146      C1147   1.412       .  A
C1147      C1148   1.414       .  A
C1147      C1150   1.451       .  S
C1148      C1151   1.452       .  S
C1149      N1156   1.158   1_565  T
C1150      N1155   1.157       .  T
C1151      N1153   1.158       .  T
C1152      N1154   1.157   1_565  T
C1157      C1158   1.413       .  A
C1157      C1162   1.415       .  A
C1158      C1159   1.413       .  A
C1158      C1163   1.450       .  S
C1159      C1160   1.415       .  A
C1159      C1166   1.450       .  S
C1160      C1161   1.413       .  A
C1161      C1162   1.407       .  A
C1161      C1164   1.454       .  S
C1162      C1165   1.451       .  S
C1163      N1170   1.157       .  T
C1164      N1169   1.158       .  T
C1165      N1167   1.157       .  T
C1166      N2576   1.157   1_455  T
N1168      C2574   1.157       .  T
C1171      C1172   1.409       .  A
C1172      C1173   1.410       .  A
C1172      C1177   1.451       .  S
C1173      C1174   1.420       .  A
C1173      C1180   1.452       .  S
C1175      C1176   1.406       .  A
C1175      C1178   1.453       .  S
C1176      C1179   1.453       .  S
C1177      N1184   1.157       .  T
C1178      N1183   1.157       .  T
C1179      N1181   1.157       .  T
C1180      N1182   1.158       .  T
C1185      C2594   1.416       .  A
C1185      C1190   1.413   1_655  A
C1186      C2593   1.415       .  A
C1186      C1187   1.416       .  A
C1186      C1191   1.450       .  S
C1187      C2596   1.413       .  A
C1187      C1194   1.451       .  S
C1188      C2595   1.412   1_455  A
C1188      C1189   1.410       .  A
C1189      C1190   1.408       .  A
C1189      C1192   1.448       .  S
C1190      C1193   1.452       .  S
C1191      N1198   1.157       .  T
C1192      N1197   1.156       .  T
C1193      N1195   1.157       .  T
C1194      N1196   1.158       .  T
C1199      C1200   1.411       .  A
C1199      C1204   1.415       .  A
C1200      C1201   1.415       .  A
C1200      C1205   1.452       .  S
C1201      C1202   1.426       .  A
C1201      C1208   1.453       .  S
C1202      C1203   1.420       .  A
C1203      C1204   1.422       .  A
C1205      N1212   1.157   1_565  T
C1206      N1211   1.158       .  T
C1207      N1209   1.157       .  T
C1208      N1210   1.157   1_565  T
C1213      C1214   1.427       .  A
C1213      C1218   1.426       .  A
C1214      C1215   1.418       .  A
C1214      C2627   1.449       .  S
C1215      C1216   1.406       .  A
C1215      C2630   1.451       .  S
C1216      C1217   1.407       .  A
C1217      C1218   1.406       .  A
C1217      C1220   1.455       .  S
C1218      C1221   1.452       .  S
C1219      C2622   1.448   1_455  S
C1219      N1226   1.157       .  T
C1220      N1225   1.157       .  T
C1221      N1223   1.157   1_554  T
C1222      C2623   1.451   1_455  S
C1222      N1224   1.158       .  T
C1227      C1228   1.420       .  A
C1227      C1232   1.435       .  A
C1228      C1229   1.410       .  A
C1228      C1233   1.451       .  S
C1229      C1230   1.422       .  A
C1229      C1236   1.450   1_455  S
C1230      C1231   1.404       .  A
C1231      C1232   1.412       .  A
C1231      C1234   1.455       .  S
C1232      C1235   1.446       .  S
C1233      N1240   1.157       .  T
C1234      N1239   1.157       .  T
C1235      N1237   1.157       .  T
C1236      N2646   1.158       .  T
N1238      C2644   1.158       .  T
C1241      C1242   1.430       .  A
C1241      C1246   1.432       .  A
C1242      C1243   1.414       .  A
C1242      C1247   1.447       .  S
C1243      C1244   1.404       .  A
C1243      C1250   1.452       .  S
C1244      C1245   1.406       .  A
C1245      C1246   1.416       .  A
C1245      C1248   1.454       .  S
C1246      C1249   1.446       .  S
C1247      N1254   1.158       .  T
C1248      N1253   1.157       .  T
C1249      N1251   1.157       .  T
C1250      N1252   1.157       .  T
C1255      C1256   1.409       .  A
C1255      C1260   1.416       .  A
C1256      C1257   1.406       .  A
C1256      C1261   1.453       .  S
C1257      C1258   1.411       .  A
C1257      C1264   1.440       .  S
C1258      C1259   1.413       .  A
C1259      C1260   1.413       .  A
C1259      C1262   1.444       .  S
C1260      C1263   1.447       .  S
C1261      N1268   1.157       .  T
C1262      N1267   1.155       .  T
C1263      N1265   1.156       .  T
C1264      N1266   1.154       .  T
C1269      C1270   1.422       .  A
C1269      C1274   1.421       .  A
C1270      C1271   1.417       .  A
C1270      C1275   1.448       .  S
C1271      C1272   1.411       .  A
C1271      C1278   1.448       .  S
C1272      C1273   1.408       .  A
C1273      C1274   1.410       .  A
C1273      C1276   1.448       .  S
C1274      C1277   1.451       .  S
C1275      N1282   1.157       .  T
C1276      N1281   1.156       .  T
C1277      N1279   1.157       .  T
C1278      N1280   1.157       .  T
C1283      C1284   1.420       .  A
C1283      C1288   1.434       .  A
C1284      C1285   1.397       .  A
C1284      C1289   1.443       .  S
C1285      C1286   1.398       .  A
C1285      C1292   1.449       .  S
C1286      C1287   1.405       .  A
C1287      C1288   1.427       .  A
C1287      C1290   1.449       .  S
C1288      C1291   1.442       .  S
C1289      N1296   1.157       .  T
C1290      N1295   1.157       .  T
C1291      N1293   1.156       .  T
C1292      N1294   1.157       .  T
C1297      C1298   1.434       .  A
C1297      C1302   1.433       .  A
C1298      C1299   1.416       .  A
C1298      C1303   1.448       .  S
C1299      C1300   1.401       .  A
C1299      C1306   1.453       .  S
C1300      C1301   1.401       .  A
C1301      C1302   1.416       .  A
C1301      C1304   1.456       .  S
C1302      C1305   1.441       .  S
C1303      N1310   1.157       .  T
C1304      N1309   1.157       .  T
C1305      N1307   1.155       .  T
C1306      N1308   1.157       .  T
C1311      C1312   1.438       .  A
C1311      C1316   1.417       .  A
C1312      C1313   1.418       .  A
C1312      C1317   1.447       .  S
C1313      C1314   1.403       .  A
C1313      C1320   1.452       .  S
C1314      C1315   1.402       .  A
C1315      C1316   1.389       .  A
C1315      C1318   1.450       .  S
C1316      C1319   1.449       .  S
C1317      N1324   1.159       .  T
C1318      N1323   1.156       .  T
C1319      N1321   1.157       .  T
C1320      N1322   1.157       .  T
C1325      C1326   1.391       .  A
C1325      C1330   1.421       .  A
C1326      C1327   1.395       .  A
C1326      C1331   1.444       .  S
C1327      C1328   1.425       .  A
C1327      C1334   1.438       .  S
C1328      C1329   1.424       .  A
C1329      C1330   1.424       .  A
C1329      C1332   1.450       .  S
C1330      C1333   1.447       .  S
C1331      N1338   1.155       .  T
C1332      N1337   1.157       .  T
C1333      N1335   1.158       .  T
C1334      N1336   1.153       .  T
C1339      C1340   1.418       .  A
C1339      C1344   1.423       .  A
C1340      C1341   1.407       .  A
C1340      C1345   1.446       .  S
C1341      C1342   1.406       .  A
C1342      C1343   1.403       .  A
C1343      C1344   1.409       .  A
C1343      C1346   1.452       .  S
C1344      C1347   1.446       .  S
C1345      N1352   1.157       .  T
C1346      N1351   1.157       .  T
C1347      N1349   1.156       .  T
C1348      N1350   1.157       .  T
C1353      C1354   1.422       .  A
C1353      C1358   1.410       .  A
C1354      C1355   1.413       .  A
C1354      C1359   1.454       .  S
C1355      C1356   1.418       .  A
C1355      C1362   1.446       .  S
C1356      C1357   1.429       .  A
C1357      C1358   1.422       .  A
C1357      C1360   1.441       .  S
C1358      C1361   1.452       .  S
C1360      N1365   1.155       .  T
C1361      N1363   1.157       .  T
C1362      N1364   1.156       .  T
C1367      C1368   1.411       .  A
C1367      C1372   1.406       .  A
C1368      C1369   1.412       .  A
C1368      C1373   1.450       .  S
C1369      C1370   1.413       .  A
C1369      C1376   1.451       .  S
C1370      C1371   1.412       .  A
C1371      C1372   1.404       .  A
C1371      C1374   1.446       .  S
C1372      C1375   1.452       .  S
C1373      N1380   1.157       .  T
C1374      N2787   1.155   1_455  T
C1375      N1377   1.157       .  T
C1376      N1378   1.157   1_554  T
N1379      C2782   1.155       .  T
C1381      C1382   1.409       .  A
C1381      C1386   1.404       .  A
C1382      C1383   1.421       .  A
C1382      C1387   1.451       .  S
C1383      C1384   1.422       .  A
C1383      C1390   1.444       .  S
C1384      C1385   1.420       .  A
C1385      C1386   1.411       .  A
C1385      C1388   1.436       .  S
C1386      C1389   1.456       .  S
C1387      N1394   1.157       .  T
C1388      N1393   1.154       .  T
C1389      N1391   1.157       .  T
C1390      N1392   1.156       .  T
C1395      C1396   1.430       .  A
C1395      C1400   1.423       .  A
C1396      C1397   1.409       .  A
C1396      C1401   1.448       .  S
C1397      C1398   1.401       .  A
C1397      C1404   1.453       .  S
C1398      C1399   1.404       .  A
C1399      C1400   1.412       .  A
C1399      C1402   1.451       .  S
C1400      C1403   1.447       .  S
C1401      N1408   1.157       .  T
C1402      N1407   1.157       .  T
C1403      N1405   1.156       .  T
C1404      N1406   1.157       .  T
C1409      C1410   1.402       .  A
C1409      C1414   1.407       .  A
C1409      C2071   1.482       .  S
C1410      C1411   1.395       .  A
C1410      H1415   1.084       .  S
C1411      C1412   1.399       .  A
C1411      C2102   1.480       .  S
C1412      C1413   1.402       .  A
C1412      H1416   1.084       .  S
C1413      C1414   1.407       .  A
C1413      C2085   1.491       .  S
C1414      H1417   1.083       .  S
C1418      H1419   1.093       .  S
C1418      C1424   1.563       .  S
C1418      C1423   1.542       .  S
C1418      C1422   1.537       .  S
C1420      H1421   1.092       .  S
C1420      C1426   1.564       .  S
C1420      C1425   1.565       .  S
C1420      C1427   1.532       .  S
C1422      C1425   1.390       .  D
C1422      C2029   1.535       .  S
C1423      C1426   1.404       .  D
C1423      C2001   1.535       .  S
C1424      C1427   1.375       .  D
C1424      C2043   1.504       .  S
C1425      C2088   1.524       .  S
C1426      C2015   1.527       .  S
C1427      C2060   1.532       .  S
C1428      H1429   1.089       .  S
C1428      C1434   1.577       .  S
C1428      C1433   1.560       .  S
C1428      C1432   1.525       .  S
C1430      H1431   1.092       .  S
C1430      C1436   1.528       .  S
C1430      C1435   1.548       .  S
C1430      C1437   1.536       .  S
C1432      C1435   1.369       .  D
C1432      C1976   1.502       .  S
C1433      C1436   1.389       .  D
C1433      C1987   1.528       .  S
C1434      C1437   1.406       .  D
C1434      C1945   1.555       .  S
C1435      C1962   1.499       .  S
C1436      C2099   1.521       .  S
C1437      C1931   1.522       .  S
C1438      C1443   1.399       .  A
C1438      C1920   1.483       .  S
C1439      C1440   1.420       .  A
C1439      H1444   1.081       .  S
C1440      C1934   1.515       .  S
C1441      C1442   1.398       .  A
C1441      H1445   1.075       .  S
C1442      C1443   1.393       .  A
C1442      C2018   1.479       .  S
C1443      H1446   1.083       .  S
C1447      C2152   1.418       .  A
C1447      C1452   1.406       .  A
C1447      C1903   1.497       .  S
C1448      C2151   1.421       .  A
C1448      C1449   1.425       .  A
C1448      H1453   1.080   1_565  S
C1449      C2154   1.399       .  A
C1449      C2057   1.531   1_565  S
C1450      C2153   1.397       .  A
C1450      C1451   1.399       .  A
C1450      H1454   1.079       .  S
C1451      C1452   1.401       .  A
C1451      C1959   1.499       .  S
C1452      H1455   1.083       .  S
C1456      C1461   1.405       .  A
C1456      C1889   1.487       .  S
C1457      C1458   1.404       .  A
C1457      H1462   1.084       .  S
C1458      C2004   1.485       .  S
C1459      C1460   1.400       .  A
C1460      C1461   1.401       .  A
C1460      C1948   1.489       .  S
C1461      H1464   1.084       .  S
C1465      C2170   1.398       .  A
C1465      C1470   1.414       .  A
C1465      C1875   1.485       .  S
C1466      C2169   1.398   1_545  A
C1466      C1467   1.387       .  A
C1466      H1471   1.084       .  S
C1467      C2172   1.396   1_545  A
C1467      C2046   1.476       .  S
C1468      C2171   1.396       .  A
C1468      C1469   1.409       .  A
C1468      H1472   1.077       .  S
C1469      C1470   1.416       .  A
C1469      C1973   1.519       .  S
C1470      H1473   1.081       .  S
C1474      C1475   1.411       .  A
C1474      C1479   1.406       .  A
C1474      C1861   1.491       .  S
C1475      C1476   1.415       .  A
C1475      H1480   1.082       .  S
C1476      C1477   1.408       .  A
C1476      C2032   1.527       .  S
C1477      C1478   1.406       .  A
C1477      H1481   1.077       .  S
C1478      C1479   1.399       .  A
C1478      C1990   1.496       .  S
C1479      H1482   1.083       .  S
O1483     Ni1489   1.926       .  S
O1483      C1504   1.270       .  A
O1484     Ni1507   1.903       .  S
O1484      C1493   1.263       .  A
O1485     Ni1489   1.917       .  S
O1485      H2212   0.967       .  S
C1486      C1819   1.490       .  S
C1486      O1503   1.273       .  A
C1486      O1495   1.275       .  A
O1487     Ni1506   1.918       .  S
O1487      C1493   1.267       .  A
O1488     Ni1506   1.904       .  S
O1488      C2194   1.266       .  A
Ni1489     O2196   1.929       .  S
Ni1489     O1494   1.906       .  S
C1490      C1833   1.484       .  S
C1490      O2192   1.266   1_545  A
C1490      O2204   1.273   1_545  A
O1491      C1497   1.271       .  A
O1492     Ni2193   1.932   1_545  S
O1492      C1497   1.277       .  A
C1493      C1878   1.490       .  S
O1494      C1496   1.265       .  A
O1495     Ni1506   1.919       .  S
C1496      C1892   1.482       .  S
C1497      C1864   1.491       .  S
H1498      O1499   0.968       .  S
O1499     Ni1507   1.907       .  S
O1499     Ni1501   1.912       .  S
O1499     Ni1506   1.914       .  S
O1500     Ni1501   1.943       .  S
O1500      C2194   1.274       .  A
Ni1501     O1503   1.913       .  S
O1502     Ni1507   1.932       .  S
C1504      C1847   1.492       .  S
C1504      O1505   1.268       .  A
H1508      O2189   0.966   1_545  S
O1509      C1530   1.267       .  A
O1510     Ni2237   1.924   1_645  S
O1510      C1519   1.272       .  A
O1511     Ni1515   1.911       .  S
O1511      H1534   0.954       .  S
C1512      C1906   1.509       .  S
C1512      O1529   1.282       .  A
C1512      O2225   1.279       .  A
O1513     Ni1532   1.923   1_455  S
O1513      C1519   1.268   1_455  A
O1514      C1516   1.265       .  A
Ni1515     O1518   1.923       .  S
C1516      C2074   1.485       .  S
C1516      O2230   1.270   1_545  A
O1517      C1523   1.282       .  A
O1518      C1523   1.275       .  A
C1519      C1808   1.504       .  S
O1520      C1522   1.268       .  A
O1521     Ni1532   1.924   1_554  S
O1521      C2216   1.279   1_545  A
C1522      C1780   1.492       .  S
C1522      O1528   1.273       .  A
C1523      C1791   1.496       .  S
H1524      O1525   0.959       .  S
O1525     Ni1533   1.922   1_655  S
O1525     Ni1527   1.907   1_556  S
O1525     Ni2236   1.908       .  S
O1526      C2220   1.268       .  A
Ni1527     O1531   1.923       .  S
Ni1527     O1529   1.935       .  S
O1528     Ni1533   1.934   1_655  S
C1530      C1917   1.509       .  S
C1530      O1531   1.267       .  A
Ni1532     O2229   1.905   1_545  S
Ni1533     O2214   1.922   1_455  S
C1535      C1540   1.410       .  A
C1535      C1836   1.493       .  S
C1536      C1537   1.404       .  A
C1536      H1541   1.083       .  S
C1537      C1763   1.506       .  S
C1538      C1539   1.411       .  A
C1538      H1542   1.081       .  S
C1539      C1540   1.410       .  A
C1539      C1752   1.520       .  S
C1540      H1543   1.081       .  S
C1544      C1549   1.405       .  A
C1544      C1805   1.489       .  S
C1545      C1546   1.412       .  A
C1545      H1550   1.082       .  S
C1546      C1735   1.515       .  S
C1547      C1548   1.398       .  A
C1547      H1551   1.078       .  S
C1548      C1549   1.399       .  A
C1548      C1724   1.489       .  S
C1549      H1552   1.084       .  S
C1553      H1554   1.090       .  S
C1553      C1559   1.575       .  S
C1553      C1558   1.523       .  S
C1553      C1557   1.559       .  S
C1555      H1556   1.095       .  S
C1555      C1561   1.566       .  S
C1555      C1560   1.538       .  S
C1555      C1562   1.551       .  S
C1557      C1560   1.383       .  D
C1557      C1749   1.532       .  S
C1558      C1561   1.372       .  D
C1558      C1665   1.498       .  S
C1559      C1562   1.404       .  D
C1559      C1693   1.551       .  S
C1560      C1721   1.518       .  S
C1561      C1679   1.515       .  S
C1562      C1710   1.535       .  S
C1563      H1564   1.091       .  S
C1563      C1569   1.577       .  S
C1563      C1568   1.524       .  S
C1563      C1567   1.568       .  S
C1565      H1566   1.098       .  S
C1565      C1571   1.563       .  S
C1565      C1570   1.529       .  S
C1565      C1572   1.553       .  S
C1567      C1570   1.384       .  D
C1567      C1651   1.522       .  S
C1568      C1571   1.372       .  D
C1568      C1766   1.512       .  S
C1569      C1572   1.406       .  D
C1569      C1626   1.557       .  S
C1570      C1637   1.523       .  S
C1571      C1738   1.505       .  S
C1572      C1612   1.537       .  S
C1573      C1574   1.404       .  A
C1573      C1578   1.413       .  A
C1573      C1850   1.495       .  S
C1574      C1575   1.395       .  A
C1574      H2283   1.084       .  S
C1575      C1576   1.394       .  A
C1575      C2400   1.474       .  S
C1576      C1577   1.398       .  A
C1576      H1580   1.084       .  S
C1577      C1578   1.410       .  A
C1577      C1654   1.488       .  S
C1578      H1581   1.083       .  S
H1579      C2278   1.084   1_545  S
C1582      C1583   1.415       .  A
C1582      C1587   1.408       .  A
C1582      C1822   1.489       .  S
C1583      C1584   1.409       .  A
C1583      H1588   1.083       .  S
C1584      C1585   1.399       .  A
C1584      C1623   1.509       .  S
C1585      C1586   1.400       .  A
C1585      H1589   1.083       .  S
C1586      C1587   1.401       .  A
C1586      C1668   1.498       .  S
C1587      H1590   1.083       .  S
C1591      C1592   1.408       .  A
C1591      C1596   1.408       .  A
C1591      C1777   1.489       .  S
C1592      C1593   1.409       .  A
C1592      H1597   1.083       .  S
C1593      C1594   1.406       .  A
C1593      C1682   1.507       .  S
C1594      C1595   1.399       .  A
C1594      H1598   1.083       .  S
C1595      C1596   1.403       .  A
C1595      C1609   1.491       .  S
C1596      H1599   1.083       .  S
C1600      C1601   1.417       .  A
C1600      C1605   1.410       .  A
C1600      C1794   1.507       .  S
C1601      C1602   1.420       .  A
C1601      H1606   1.076       .  S
C1602      C1603   1.408       .  A
C1602      C1640   1.535       .  S
C1603      C1604   1.400       .  A
C1603      H1607   1.071       .  S
C1604      C1605   1.409       .  A
C1604      C2411   1.515       .  S
C1605      H2312   1.083       .  S
H1608      C2309   1.083   1_545  S
C1609      C1610   1.404       .  A
C1609      C1614   1.402       .  A
C1610      C1611   1.417       .  A
C1610      C1615   1.452       .  S
C1611      C1612   1.432       .  A
C1611      C1618   1.447       .  S
C1612      C1613   1.431       .  A
C1613      C1614   1.416       .  A
C1613      C1616   1.445       .  S
C1614      C1617   1.453       .  S
C1615      N1622   1.157       .  T
C1616      N1621   1.156       .  T
C1617      N1619   1.157       .  T
C1618      N1620   1.158       .  T
C1623      C1624   1.411       .  A
C1623      C1628   1.413       .  A
C1624      C1625   1.405       .  A
C1624      C1629   1.451       .  S
C1625      C1626   1.419       .  A
C1625      C1632   1.447       .  S
C1626      C1627   1.434       .  A
C1627      C1628   1.427       .  A
C1627      C1630   1.447       .  S
C1628      C1631   1.451       .  S
C1629      N1636   1.157       .  T
C1630      N1635   1.158       .  T
C1631      N1633   1.157       .  T
C1632      N1634   1.157       .  T
C1637      C1638   1.423       .  A
C1637      C1642   1.411       .  A
C1638      C1639   1.423       .  A
C1638      C1643   1.445       .  S
C1639      C1640   1.424       .  A
C1639      C1646   1.448       .  S
C1640      C1641   1.422       .  A
C1641      C1642   1.410       .  A
C1641      C1644   1.453       .  S
C1642      C1645   1.443       .  S
C1643      N1650   1.155       .  T
C1644      N1649   1.157       .  T
C1645      N1647   1.156       .  T
C1646      N1648   1.158       .  T
C1651      C1652   1.424       .  A
C1651      C1656   1.429       .  A
C1652      C1653   1.413       .  A
C1652      C1657   1.446       .  S
C1653      C1654   1.405       .  A
C1653      C1660   1.453       .  S
C1654      C1655   1.405       .  A
C1655      C1656   1.415       .  A
C1655      C1658   1.454       .  S
C1656      C1659   1.445       .  S
C1657      N1664   1.156       .  T
C1658      N1663   1.157       .  T
C1659      N1661   1.157       .  T
C1660      N1662   1.157       .  T
C1665      C1666   1.413       .  A
C1665      C1670   1.412       .  A
C1666      C1667   1.416       .  A
C1666      C1671   1.447       .  S
C1667      C1668   1.416       .  A
C1667      C1674   1.448       .  S
C1668      C1669   1.412       .  A
C1669      C1670   1.404       .  A
C1669      C1672   1.455       .  S
C1670      C1673   1.442       .  S
C1671      N1678   1.157       .  T
C1672      N1677   1.157       .  T
C1673      N1675   1.155       .  T
C1674      N1676   1.157       .  T
C1679      C1680   1.418       .  A
C1679      C1684   1.411       .  A
C1680      C1681   1.420       .  A
C1680      C1685   1.442       .  S
C1681      C1682   1.416       .  A
C1681      C1688   1.452       .  S
C1682      C1683   1.413       .  A
C1683      C1684   1.409       .  A
C1683      C1686   1.454       .  S
C1684      C1687   1.437       .  S
C1685      N1692   1.155       .  T
C1686      N1691   1.157       .  T
C1687      N1689   1.153       .  T
C1688      N1690   1.157       .  T
C1693      C1694   1.431       .  A
C1693      C1698   1.433       .  A
C1694      C1695   1.412       .  A
C1694      C1699   1.446       .  S
C1695      C1696   1.399       .  A
C1695      C1702   1.451       .  S
C1696      C1697   1.401       .  A
C1696      C2279   1.475   1_545  S
C1697      C1698   1.409       .  A
C1697      C1700   1.455       .  S
C1698      C1701   1.447       .  S
C1699      N1706   1.158       .  T
C1700      N2409   1.157   1_545  T
C1701      N1703   1.157       .  T
C1702      N1704   1.157       .  T
N1705      C2404   1.157       .  T
C1707      C1708   1.416       .  A
C1707      C1712   1.410       .  A
C1707      C2308   1.510   1_545  S
C1708      C1709   1.410       .  A
C1708      C2417   1.455   1_545  S
C1709      C1710   1.424       .  A
C1709      C1716   1.447       .  S
C1710      C1711   1.432       .  A
C1711      C1712   1.418       .  A
C1711      C1714   1.448       .  S
C1712      C1715   1.449       .  S
C1713      C2412   1.453       .  S
C1713      N1720   1.157       .  T
C1714      N1719   1.157       .  T
C1715      N1717   1.156       .  T
C1716      N1718   1.156       .  T
C1721      C1722   1.420       .  A
C1721      C1726   1.423       .  A
C1722      C1723   1.413       .  A
C1722      C1727   1.446       .  S
C1723      C1724   1.406       .  A
C1723      C1730   1.450       .  S
C1724      C1725   1.409       .  A
C1725      C1726   1.414       .  A
C1725      C1728   1.452       .  S
C1726      C1729   1.448       .  S
C1727      N1734   1.156       .  T
C1728      N1733   1.157       .  T
C1729      N1731   1.157       .  T
C1730      N1732   1.157       .  T
C1735      C1736   1.422       .  A
C1735      C1740   1.419       .  A
C1736      C1737   1.418       .  A
C1736      C1741   1.450       .  S
C1737      C1738   1.411       .  A
C1737      C1744   1.444       .  S
C1738      C1739   1.408       .  A
C1739      C1740   1.410       .  A
C1739      C1742   1.445       .  S
C1740      C1743   1.452       .  S
C1741      N1748   1.157       .  T
C1742      N1747   1.156       .  T
C1744      N1746   1.155       .  T
C1749      C1750   1.423       .  A
C1749      C1754   1.424       .  A
C1750      C1751   1.421       .  A
C1750      C1755   1.444       .  S
C1751      C1752   1.418       .  A
C1751      C1758   1.450       .  S
C1752      C1753   1.415       .  A
C1753      C1754   1.409       .  A
C1753      C1756   1.454       .  S
C1754      C1757   1.444       .  S
C1755      N1762   1.156       .  T
C1756      N1761   1.157       .  T
C1757      N1759   1.156       .  T
C1758      N1760   1.158       .  T
C1763      C1764   1.419       .  A
C1763      C1768   1.414       .  A
C1764      C1765   1.415       .  A
C1764      C1769   1.450       .  S
C1765      C1766   1.411       .  A
C1765      C1772   1.447       .  S
C1766      C1767   1.416       .  A
C1767      C1768   1.416       .  A
C1767      C1770   1.444       .  S
C1768      C1771   1.452       .  S
C1769      N1776   1.158       .  T
C1770      N1775   1.156       .  T
C1771      N1773   1.157       .  T
C1772      N1774   1.157       .  T
C1777      C1778   1.411       .  A
C1777      C1782   1.411       .  A
C1778      C1779   1.414       .  A
C1778      C1783   1.450       .  S
C1779      C1780   1.416       .  A
C1779      C1786   1.451       .  S
C1780      C1781   1.414       .  A
C1781      C1782   1.412       .  A
C1781      C1784   1.448       .  S
C1782      C1785   1.451       .  S
C1783      N1790   1.157       .  T
C1784      N1789   1.156       .  T
C1785      N1787   1.157       .  T
C1786      N1788   1.157       .  T
C1791      C1792   1.415       .  A
C1791      C1796   1.412       .  A
C1792      C1793   1.418       .  A
C1792      C1797   1.450       .  S
C1793      C1794   1.416       .  A
C1793      C1800   1.451       .  S
C1794      C1795   1.416       .  A
C1795      C1796   1.418       .  A
C1795      C1798   1.448       .  S
C1796      C1799   1.450       .  S
C1798      N2507   1.157       .  T
C1799      N2505   1.157       .  T
C1800      N1802   1.157       .  T
N1801      C2503   1.157       .  T
N1803      C2502   1.156       .  T
C1805      C1810   1.407       .  A
C1806      C1807   1.414       .  A
C1806      C1811   1.451       .  S
C1807      C1814   1.450       .  S
C1808      C1809   1.426       .  A
C1809      C1810   1.413       .  A
C1809      C1812   1.452       .  S
C1810      C1813   1.452       .  S
C1811      N1818   1.157       .  T
C1812      N1817   1.158       .  T
C1813      N1815   1.157       .  T
C1814      N1816   1.157       .  T
C1819      C1820   1.416       .  A
C1819      C1824   1.415       .  A
C1820      C1821   1.409       .  A
C1820      C1825   1.453       .  S
C1821      C1822   1.410       .  A
C1821      C1828   1.450       .  S
C1822      C1823   1.414       .  A
C1823      C1824   1.413       .  A
C1823      C1826   1.450       .  S
C1824      C1827   1.451       .  S
C1825      N1832   1.158       .  T
C1826      N1831   1.157       .  T
C1827      N1829   1.158       .  T
C1828      N1830   1.157       .  T
C1833      C1834   1.410       .  A
C1833      C1838   1.412       .  A
C1834      C1835   1.411       .  A
C1835      C1836   1.413       .  A
C1836      C1837   1.416       .  A
C1837      C1838   1.414       .  A
C1837      C1840   1.451       .  S
C1838      C1841   1.451       .  S
C1839      N2550   1.156       .  T
C1840      N1845   1.157   1_655  T
C1841      N1843   1.158   1_655  T
C1842      N1844   1.157       .  T
N1846      C2543   1.156       .  T
C1847      C1848   1.413       .  A
C1847      C1852   1.418       .  A
C1848      C1849   1.410       .  A
C1848      C1853   1.453       .  S
C1849      C1850   1.418       .  A
C1849      C1856   1.450       .  S
C1850      C1851   1.413       .  A
C1851      C1852   1.412       .  A
C1851      C1854   1.451       .  S
C1852      C1855   1.452       .  S
C1853      N1860   1.158       .  T
C1854      N1859   1.157       .  T
C1855      N1857   1.158       .  T
C1856      N1858   1.157       .  T
C1861      C1862   1.412       .  A
C1861      C1866   1.413       .  A
C1862      C1863   1.415       .  A
C1862      C1867   1.450       .  S
C1863      C1864   1.415       .  A
C1863      C1870   1.450       .  S
C1864      C1865   1.414       .  A
C1865      C1866   1.410       .  A
C1865      C1868   1.453       .  S
C1866      C1869   1.451       .  S
C1867      N1874   1.157       .  T
C1868      N1873   1.157       .  T
C1869      N1871   1.157       .  T
C1875      C1876   1.411       .  A
C1875      C2584   1.413       .  A
C1876      C1877   1.411       .  A
C1876      C1881   1.451       .  S
C1877      C1878   1.420       .  A
C1877      C1884   1.452       .  S
C1878      C2583   1.417       .  A
C1879      C2582   1.420   1_545  A
C1879      C1880   1.409   1_545  A
C1879      C1882   1.453       .  S
C1880      C2579   1.413       .  A
C1880      C1883   1.453   1_565  S
C1881      N1888   1.157       .  T
C1882      N1887   1.158       .  T
C1883      N1885   1.157       .  T
C1884      N1886   1.158       .  T
C1889      C1894   1.412       .  A
C1890      C1891   1.415       .  A
C1890      C1895   1.450       .  S
C1891      C1898   1.450       .  S
C1892      C1893   1.410       .  A
C1893      C1894   1.407       .  A
C1893      C1896   1.448       .  S
C1894      C1897   1.452       .  S
C1895      N1902   1.157       .  T
C1896      N1901   1.156       .  T
C1897      N1899   1.157       .  T
C1898      N1900   1.158       .  T
C1903      C1904   1.411       .  A
C1903      C1908   1.414       .  A
C1904      C1905   1.412       .  A
C1904      C1909   1.452       .  S
C1905      C1906   1.422       .  A
C1905      C1912   1.453       .  S
C1906      C1907   1.420       .  A
C1907      C1908   1.418       .  A
C1907      C2614   1.451       .  S
C1908      C2615   1.449       .  S
C1909      N1916   1.157       .  T
C1910      C2611   1.450       .  S
C1910      N1915   1.158       .  T
C1911      C2612   1.447       .  S
C1911      N1913   1.157       .  T
C1912      N1914   1.157       .  T
C1917      C1918   1.427       .  A
C1917      C1922   1.425       .  A
C1918      C1919   1.418       .  A
C1919      C1920   1.406       .  A
C1920      C1921   1.406       .  A
C1921      C1922   1.405       .  A
C1921      C1924   1.454       .  S
C1922      C1925   1.453       .  S
C1923      N1930   1.157       .  T
C1924      N1929   1.157       .  T
C1925      N1927   1.157   1_554  T
C1926      N1928   1.157       .  T
C1931      C1932   1.418       .  A
C1931      C1936   1.435       .  A
C1932      C1933   1.408       .  A
C1932      C1937   1.450       .  S
C1933      C1934   1.423       .  A
C1933      C1940   1.450       .  S
C1934      C1935   1.406       .  A
C1935      C1936   1.413       .  A
C1935      C1938   1.454       .  S
C1936      C1939   1.447       .  S
C1937      N1944   1.156       .  T
C1938      N1943   1.157       .  T
C1939      N1941   1.157       .  T
C1945      C1946   1.433       .  A
C1945      C1950   1.433       .  A
C1946      C1947   1.415       .  A
C1946      C1951   1.447       .  S
C1947      C1948   1.403       .  A
C1947      C1954   1.453       .  S
C1948      C1949   1.404       .  A
C1949      C1950   1.415       .  A
C1949      C1952   1.454       .  S
C1950      C1953   1.445       .  S
C1951      N1958   1.158       .  T
C1952      N1957   1.157       .  T
C1953      N1955   1.157       .  T
C1954      N1956   1.157       .  T
C1959      C1960   1.410       .  A
C1959      C1964   1.416       .  A
C1960      C1961   1.406       .  A
C1960      C1965   1.454       .  S
C1961      C1962   1.411       .  A
C1961      C1968   1.441       .  S
C1962      C1963   1.411       .  A
C1963      C1964   1.412       .  A
C1963      C1966   1.444       .  S
C1964      C1967   1.447       .  S
C1965      N1972   1.158       .  T
C1966      N1971   1.155       .  T
C1967      N1969   1.156       .  T
C1968      N1970   1.154       .  T
C1973      C1974   1.423       .  A
C1973      C1978   1.422       .  A
C1974      C1975   1.418       .  A
C1974      C1979   1.448       .  S
C1975      C1976   1.411       .  A
C1975      C1982   1.448       .  S
C1976      C1977   1.409       .  A
C1977      C1978   1.411       .  A
C1977      C1980   1.448       .  S
C1978      C1981   1.452       .  S
C1979      N1986   1.157       .  T
C1980      N1985   1.156       .  T
C1981      N1983   1.157       .  T
C1982      N1984   1.157       .  T
C1987      C1988   1.420       .  A
C1987      C1992   1.431       .  A
C1988      C1989   1.397       .  A
C1988      C1993   1.443       .  S
C1989      C1990   1.400       .  A
C1989      C1996   1.451       .  S
C1990      C1991   1.407       .  A
C1991      C1992   1.424       .  A
C1991      C1994   1.449       .  S
C1992      C1995   1.442       .  S
C1993      N2000   1.157       .  T
C1994      N1999   1.157       .  T
C1995      N1997   1.156       .  T
C1996      N1998   1.157       .  T
C2001      C2002   1.433       .  A
C2001      C2006   1.431       .  A
C2002      C2003   1.413       .  A
C2002      C2007   1.449       .  S
C2003      C2004   1.401       .  A
C2003      C2010   1.454       .  S
C2004      C2005   1.403       .  A
C2005      C2006   1.416       .  A
C2005      C2008   1.455       .  S
C2006      C2009   1.443       .  S
C2007      N2014   1.157       .  T
C2008      N2013   1.157       .  T
C2009      N2011   1.156       .  T
C2010      N2012   1.157       .  T
C2015      C2016   1.439       .  A
C2015      C2020   1.417       .  A
C2016      C2017   1.417       .  A
C2016      C2021   1.447       .  S
C2017      C2018   1.401       .  A
C2017      C2024   1.452       .  S
C2018      C2019   1.402       .  A
C2019      C2020   1.391       .  A
C2019      C2022   1.451       .  S
C2020      C2023   1.449       .  S
C2021      N2028   1.158       .  T
C2022      N2027   1.156       .  T
C2023      N2025   1.157       .  T
C2024      N2026   1.157       .  T
C2029      C2030   1.401       .  A
C2029      C2034   1.425       .  A
C2030      C2031   1.407       .  A
C2030      C2035   1.445       .  S
C2031      C2032   1.426       .  A
C2031      C2038   1.440       .  S
C2032      C2033   1.421       .  A
C2033      C2034   1.426       .  A
C2033      C2036   1.451       .  S
C2034      C2037   1.445       .  S
C2035      N2042   1.155       .  T
C2036      N2041   1.157       .  T
C2037      N2039   1.158       .  T
C2038      N2040   1.154       .  T
C2043      C2044   1.415       .  A
C2043      C2048   1.425       .  A
C2044      C2045   1.406       .  A
C2044      C2049   1.443       .  S
C2045      C2046   1.404       .  A
C2045      C2756   1.452       .  S
C2046      C2047   1.401       .  A
C2047      C2048   1.410       .  A
C2047      C2050   1.452       .  S
C2048      C2051   1.446       .  S
C2049      N2056   1.156       .  T
C2050      N2055   1.157       .  T
C2051      N2053   1.156       .  T
C2052      C2749   1.453       .  S
C2052      N2054   1.157       .  T
C2057      C2058   1.431       .  A
C2057      C2062   1.416       .  A
C2058      C2059   1.415       .  A
C2058      C2063   1.453   1_545  S
C2059      C2060   1.412       .  A
C2059      C2066   1.448       .  S
C2060      C2061   1.426       .  A
C2061      C2062   1.422       .  A
C2061      C2064   1.443       .  S
C2062      C2065   1.452       .  S
C2063      N2774   1.157       .  T
C2064      N2069   1.156       .  T
C2065      N2067   1.157       .  T
C2066      N2068   1.156       .  T
N2070      C2767   1.157       .  T
C2071      C2072   1.411       .  A
C2071      C2076   1.407       .  A
C2072      C2073   1.412       .  A
C2072      C2077   1.450       .  S
C2073      C2074   1.414       .  A
C2073      C2080   1.451       .  S
C2074      C2075   1.415       .  A
C2075      C2076   1.409       .  A
C2075      C2078   1.446       .  S
C2076      C2079   1.452       .  S
C2077      N2084   1.157       .  T
C2079      N2081   1.157       .  T
C2080      N2082   1.157   1_554  T
C2085      C2086   1.407       .  A
C2085      C2090   1.404       .  A
C2086      C2087   1.419       .  A
C2086      C2091   1.451       .  S
C2087      C2088   1.423       .  A
C2087      C2094   1.444       .  S
C2088      C2089   1.422       .  A
C2089      C2090   1.412       .  A
C2089      C2092   1.439       .  S
C2090      C2093   1.455       .  S
C2091      N2098   1.157       .  T
C2092      N2097   1.155       .  T
C2093      N2095   1.157       .  T
C2094      N2096   1.155       .  T
C2099      C2100   1.431       .  A
C2099      C2104   1.421       .  A
C2100      C2101   1.412       .  A
C2100      C2105   1.448       .  S
C2101      C2102   1.403       .  A
C2101      C2108   1.453       .  S
C2102      C2103   1.405       .  A
C2103      C2104   1.411       .  A
C2103      C2106   1.451       .  S
C2104      C2107   1.446       .  S
C2105      N2112   1.157       .  T
C2106      N2111   1.157       .  T
C2107      N2109   1.156       .  T
C2108      N2110   1.157       .  T
C2113      C2114   1.400       .  A
C2113      C2118   1.406       .  A
C2113      C2775   1.476       .  S
C2114      C2115   1.391       .  A
C2114      H2119   1.084       .  S
C2115      C2116   1.400       .  A
C2115      C2806   1.480       .  S
C2116      C2117   1.405       .  A
C2116      H2120   1.082       .  S
C2117      C2118   1.406       .  A
C2117      C2789   1.495       .  S
C2118      H2121   1.083       .  S
C2122      H2123   1.092       .  S
C2122      C2128   1.559       .  S
C2122      C2127   1.541       .  S
C2122      C2126   1.530       .  S
C2124      H2125   1.096       .  S
C2124      C2130   1.566       .  S
C2124      C2129   1.561       .  S
C2124      C2131   1.538       .  S
C2126      C2129   1.390       .  D
C2126      C2733   1.518       .  S
C2127      C2130   1.403       .  D
C2127      C2705   1.542       .  S
C2128      C2131   1.378       .  D
C2128      C2747   1.502       .  S
C2129      C2792   1.525       .  S
C2130      C2719   1.522       .  S
C2131      C2764   1.535       .  S
C2132      H2133   1.089       .  S
C2132      C2138   1.583       .  S
C2132      C2137   1.560       .  S
C2132      C2136   1.526       .  S
C2134      H2135   1.090       .  S
C2134      C2140   1.528       .  S
C2134      C2139   1.549       .  S
C2134      C2141   1.532       .  S
C2136      C2139   1.368       .  D
C2136      C2680   1.502       .  S
C2137      C2140   1.391       .  D
C2137      C2691   1.532       .  S
C2138      C2141   1.404       .  D
C2138      C2649   1.553       .  S
C2139      C2666   1.500       .  S
C2140      C2803   1.520       .  S
C2141      C2635   1.526       .  S
C2142      C2147   1.399       .  A
C2142      C2624   1.483       .  S
C2143      C2144   1.420       .  A
C2143      H2148   1.081       .  S
C2144      C2638   1.515       .  S
C2145      C2146   1.399       .  A
C2145      H2149   1.075       .  S
C2146      C2147   1.393       .  A
C2146      C2722   1.479       .  S
C2147      H2150   1.083       .  S
C2151      C2156   1.405       .  A
C2151      C2607   1.505       .  S
C2152      C2153   1.418       .  A
C2152      H2157   1.081       .  S
C2153      C2761   1.521       .  S
C2154      C2155   1.400       .  A
C2154      H2158   1.077       .  S
C2155      C2156   1.402       .  A
C2155      C2663   1.499       .  S
C2156      H2159   1.083       .  S
C2160      C2165   1.407       .  A
C2160      C2593   1.492       .  S
C2161      C2162   1.405       .  A
C2161      H2166   1.083       .  S
C2162      C2708   1.489       .  S
C2163      C2164   1.400       .  A
C2164      C2165   1.402       .  A
C2164      C2652   1.491       .  S
C2165      H2168   1.084       .  S
C2169      C2174   1.416       .  A
C2169      C2579   1.487       .  S
C2170      C2171   1.386       .  A
C2170      H2175   1.084       .  S
C2171      C2750   1.478       .  S
C2172      C2173   1.408       .  A
C2172      H2176   1.078       .  S
C2173      C2174   1.416       .  A
C2173      C2677   1.517       .  S
C2174      H2177   1.081       .  S
C2178      C2179   1.408       .  A
C2178      C2183   1.406       .  A
C2178      C2565   1.489       .  S
C2179      C2180   1.411       .  A
C2179      H2184   1.082       .  S
C2180      C2181   1.405       .  A
C2180      C2736   1.515       .  S
C2181      C2182   1.406       .  A
C2181      H2185   1.080       .  S
C2182      C2183   1.400       .  A
C2182      C2694   1.496       .  S
C2183      H2186   1.083       .  S
O2187     Ni2193   1.928       .  S
O2187      C2208   1.271       .  A
O2188     Ni2211   1.905       .  S
O2188      C2197   1.265       .  A
O2189     Ni2193   1.916       .  S
C2190      C2523   1.495       .  S
C2190      O2207   1.275       .  A
C2190      O2199   1.276       .  A
O2191     Ni2210   1.919       .  S
O2191      C2197   1.267       .  A
O2192     Ni2210   1.904       .  S
Ni2193     O2198   1.907       .  S
C2194      C2537   1.487       .  S
O2195      C2201   1.270       .  A
O2196      C2201   1.277       .  A
C2197      C2582   1.495       .  S
O2198      C2200   1.267       .  A
O2199     Ni2210   1.924       .  S
C2200      C2596   1.484       .  S
C2201      C2568   1.487       .  S
H2202      O2203   0.968       .  S
O2203     Ni2211   1.910       .  S
O2203     Ni2205   1.911       .  S
O2203     Ni2210   1.916       .  S
O2204     Ni2205   1.939       .  S
Ni2205     O2207   1.917       .  S
O2206     Ni2211   1.936       .  S
C2208      C2551   1.499       .  S
C2208      O2209   1.269       .  A
O2213      C2234   1.268       .  A
O2214      C2223   1.272   1_655  A
O2215     Ni2219   1.911       .  S
O2215      H2238   0.954       .  S
C2216      C2610   1.518       .  S
C2216      O2233   1.287       .  A
O2217     Ni2236   1.922   1_455  S
O2217      C2223   1.268       .  A
O2218      C2220   1.265       .  A
Ni2219     O2222   1.928       .  S
C2220      C2778   1.480       .  S
O2221      C2227   1.282       .  A
O2222      C2227   1.276       .  A
C2223      C2512   1.502       .  S
O2224      C2226   1.269       .  A
O2225     Ni2236   1.928   1_554  S
C2226      C2484   1.499       .  S
C2226      O2232   1.275       .  A
C2227      C2495   1.498       .  S
H2228      O2229   0.959       .  S
O2229     Ni2237   1.923   1_655  S
O2229     Ni2231   1.907   1_556  S
Ni2231     O2235   1.927       .  S
Ni2231     O2233   1.952       .  S
O2232     Ni2237   1.939   1_655  S
C2234      C2621   1.510       .  S
C2234      O2235   1.271       .  A
C2239      C2244   1.409       .  A
C2239      C2540   1.495       .  S
C2240      C2241   1.406       .  A
C2240      H2245   1.083       .  S
C2241      C2467   1.505       .  S
C2242      C2243   1.409       .  A
C2242      H2246   1.082       .  S
C2243      C2244   1.410       .  A
C2243      C2456   1.515       .  S
C2244      H2247   1.082       .  S
C2248      C2253   1.404       .  A
C2248      C2509   1.485       .  S
C2249      C2250   1.409       .  A
C2249      H2254   1.082       .  S
C2250      C2439   1.510       .  S
C2251      C2252   1.396       .  A
C2251      H2255   1.079       .  S
C2252      C2253   1.398       .  A
C2252      C2428   1.486       .  S
C2253      H2256   1.084       .  S
C2257      H2258   1.090       .  S
C2257      C2263   1.574       .  S
C2257      C2262   1.523       .  S
C2257      C2261   1.561       .  S
C2259      H2260   1.095       .  S
C2259      C2265   1.566       .  S
C2259      C2264   1.539       .  S
C2259      C2266   1.549       .  S
C2261      C2264   1.383       .  D
C2261      C2453   1.532       .  S
C2262      C2265   1.371       .  D
C2262      C2369   1.499       .  S
C2263      C2266   1.405       .  D
C2263      C2397   1.548       .  S
C2264      C2425   1.517       .  S
C2265      C2383   1.516       .  S
C2266      C2414   1.538       .  S
C2267      H2268   1.092       .  S
C2267      C2273   1.576       .  S
C2267      C2272   1.524       .  S
C2267      C2271   1.567       .  S
C2269      H2270   1.099       .  S
C2269      C2275   1.563       .  S
C2269      C2274   1.528       .  S
C2269      C2276   1.548       .  S
C2271      C2274   1.383       .  D
C2271      C2355   1.516       .  S
C2272      C2275   1.371       .  D
C2272      C2470   1.512       .  S
C2273      C2276   1.405       .  D
C2273      C2330   1.554       .  S
C2274      C2341   1.525       .  S
C2275      C2442   1.501       .  S
C2276      C2316   1.534       .  S
C2277      C2278   1.405       .  A
C2277      C2282   1.412       .  A
C2277      C2554   1.498       .  S
C2278      C2279   1.397       .  A
C2279      C2280   1.394       .  A
C2280      C2281   1.397       .  A
C2280      H2284   1.085       .  S
C2281      C2282   1.410       .  A
C2281      C2358   1.486       .  S
C2282      H2285   1.083       .  S
C2286      C2287   1.415       .  A
C2286      C2291   1.409       .  A
C2286      C2526   1.491       .  S
C2287      C2288   1.408       .  A
C2287      H2292   1.083       .  S
C2288      C2289   1.399       .  A
C2288      C2327   1.507       .  S
C2289      C2290   1.400       .  A
C2289      H2293   1.083       .  S
C2290      C2291   1.402       .  A
C2290      C2372   1.499       .  S
C2291      H2294   1.083       .  S
C2295      C2296   1.409       .  A
C2295      C2300   1.409       .  A
C2295      C2481   1.494       .  S
C2296      C2297   1.411       .  A
C2296      H2301   1.083       .  S
C2297      C2298   1.408       .  A
C2297      C2386   1.513       .  S
C2298      C2299   1.401       .  A
C2298      H2302   1.082       .  S
C2299      C2300   1.404       .  A
C2299      C2313   1.494       .  S
C2300      H2303   1.083       .  S
C2304      C2305   1.417       .  A
C2304      C2309   1.410       .  A
C2304      C2498   1.510       .  S
C2305      C2306   1.422       .  A
C2305      H2310   1.075       .  S
C2306      C2307   1.408       .  A
C2306      C2344   1.537       .  S
C2307      C2308   1.399       .  A
C2307      H2311   1.071       .  S
C2308      C2309   1.408       .  A
C2313      C2314   1.406       .  A
C2313      C2318   1.404       .  A
C2314      C2315   1.416       .  A
C2314      C2319   1.451       .  S
C2315      C2316   1.429       .  A
C2315      C2322   1.447       .  S
C2316      C2317   1.429       .  A
C2317      C2318   1.417       .  A
C2317      C2320   1.445       .  S
C2318      C2321   1.452       .  S
C2319      N2326   1.157       .  T
C2320      N2325   1.156       .  T
C2321      N2323   1.157       .  T
C2322      N2324   1.158       .  T
C2327      C2328   1.410       .  A
C2327      C2332   1.415       .  A
C2328      C2329   1.402       .  A
C2328      C2333   1.450       .  S
C2329      C2330   1.416       .  A
C2329      C2336   1.446       .  S
C2330      C2331   1.433       .  A
C2331      C2332   1.428       .  A
C2331      C2334   1.447       .  S
C2332      C2335   1.450       .  S
C2333      N2340   1.157       .  T
C2334      N2339   1.158       .  T
C2335      N2337   1.157       .  T
C2336      N2338   1.157       .  T
C2341      C2342   1.422       .  A
C2341      C2346   1.413       .  A
C2342      C2343   1.421       .  A
C2342      C2347   1.444       .  S
C2343      C2344   1.424       .  A
C2343      C2350   1.448       .  S
C2344      C2345   1.422       .  A
C2345      C2346   1.411       .  A
C2345      C2348   1.453       .  S
C2346      C2349   1.443       .  S
C2347      N2354   1.155       .  T
C2348      N2353   1.158       .  T
C2349      N2351   1.156       .  T
C2350      N2352   1.158       .  T
C2355      C2356   1.422       .  A
C2355      C2360   1.426       .  A
C2356      C2357   1.412       .  A
C2356      C2361   1.447       .  S
C2357      C2358   1.407       .  A
C2357      C2364   1.453       .  S
C2358      C2359   1.405       .  A
C2359      C2360   1.413       .  A
C2359      C2362   1.454       .  S
C2360      C2363   1.446       .  S
C2361      N2368   1.156       .  T
C2362      N2367   1.157       .  T
C2363      N2365   1.157       .  T
C2364      N2366   1.157       .  T
C2369      C2370   1.412       .  A
C2369      C2374   1.413       .  A
C2370      C2371   1.416       .  A
C2370      C2375   1.446       .  S
C2371      C2372   1.416       .  A
C2371      C2378   1.448       .  S
C2372      C2373   1.414       .  A
C2373      C2374   1.405       .  A
C2373      C2376   1.456       .  S
C2374      C2377   1.443       .  S
C2375      N2382   1.157       .  T
C2376      N2381   1.157       .  T
C2377      N2379   1.156       .  T
C2378      N2380   1.157       .  T
C2383      C2384   1.418       .  A
C2383      C2388   1.410       .  A
C2384      C2385   1.421       .  A
C2384      C2389   1.442       .  S
C2385      C2386   1.419       .  A
C2385      C2392   1.452       .  S
C2386      C2387   1.415       .  A
C2387      C2388   1.410       .  A
C2387      C2390   1.452       .  S
C2388      C2391   1.438       .  S
C2389      N2396   1.155       .  T
C2390      N2395   1.157       .  T
C2391      N2393   1.153       .  T
C2392      N2394   1.158       .  T
C2397      C2398   1.431       .  A
C2397      C2402   1.433       .  A
C2398      C2399   1.412       .  A
C2398      C2403   1.446       .  S
C2399      C2400   1.399       .  A
C2399      C2406   1.452       .  S
C2400      C2401   1.401       .  A
C2401      C2402   1.408       .  A
C2401      C2404   1.454       .  S
C2402      C2405   1.447       .  S
C2403      N2410   1.158       .  T
C2405      N2407   1.157       .  T
C2406      N2408   1.157       .  T
C2411      C2412   1.417       .  A
C2411      C2416   1.413       .  A
C2412      C2413   1.410       .  A
C2413      C2414   1.422       .  A
C2413      C2420   1.448       .  S
C2414      C2415   1.433       .  A
C2415      C2416   1.421       .  A
C2415      C2418   1.447       .  S
C2416      C2419   1.451       .  S
C2417      N2424   1.157       .  T
C2418      N2423   1.157       .  T
C2419      N2421   1.157       .  T
C2420      N2422   1.156       .  T
C2425      C2426   1.421       .  A
C2425      C2430   1.423       .  A
C2426      C2427   1.413       .  A
C2426      C2431   1.447       .  S
C2427      C2428   1.406       .  A
C2427      C2434   1.451       .  S
C2428      C2429   1.409       .  A
C2429      C2430   1.413       .  A
C2429      C2432   1.452       .  S
C2430      C2433   1.448       .  S
C2431      N2438   1.156       .  T
C2432      N2437   1.157       .  T
C2433      N2435   1.157       .  T
C2434      N2436   1.157       .  T
C2439      C2440   1.422       .  A
C2439      C2444   1.419       .  A
C2440      C2441   1.415       .  A
C2440      C2445   1.451       .  S
C2441      C2442   1.409       .  A
C2441      C2448   1.444       .  S
C2442      C2443   1.408       .  A
C2443      C2444   1.410       .  A
C2443      C2446   1.445       .  S
C2444      C2447   1.453       .  S
C2445      N2452   1.157       .  T
C2446      N2451   1.156       .  T
C2448      N2450   1.155       .  T
C2453      C2454   1.421       .  A
C2453      C2458   1.426       .  A
C2454      C2455   1.418       .  A
C2454      C2459   1.443       .  S
C2455      C2456   1.415       .  A
C2455      C2462   1.450       .  S
C2456      C2457   1.415       .  A
C2457      C2458   1.410       .  A
C2457      C2460   1.455       .  S
C2458      C2461   1.443       .  S
C2459      N2466   1.156       .  T
C2460      N2465   1.157       .  T
C2461      N2463   1.156       .  T
C2462      N2464   1.157       .  T
C2467      C2468   1.418       .  A
C2467      C2472   1.414       .  A
C2468      C2469   1.414       .  A
C2468      C2473   1.450       .  S
C2469      C2470   1.411       .  A
C2469      C2476   1.446       .  S
C2470      C2471   1.415       .  A
C2471      C2472   1.417       .  A
C2471      C2474   1.444       .  S
C2472      C2475   1.452       .  S
C2473      N2480   1.158       .  T
C2474      N2479   1.156       .  T
C2475      N2477   1.157       .  T
C2476      N2478   1.157       .  T
C2481      C2482   1.411       .  A
C2481      C2486   1.411       .  A
C2482      C2483   1.417       .  A
C2482      C2487   1.450       .  S
C2483      C2484   1.418       .  A
C2483      C2490   1.450       .  S
C2484      C2485   1.415       .  A
C2485      C2486   1.414       .  A
C2485      C2488   1.448       .  S
C2486      C2489   1.451       .  S
C2487      N2494   1.157       .  T
C2488      N2493   1.156       .  T
C2489      N2491   1.157       .  T
C2490      N2492   1.157       .  T
C2495      C2496   1.415       .  A
C2495      C2500   1.411       .  A
C2496      C2497   1.420       .  A
C2496      C2501   1.450       .  S
C2497      C2498   1.418       .  A
C2497      C2504   1.451       .  S
C2498      C2499   1.416       .  A
C2499      C2500   1.418       .  A
C2499      C2502   1.446   1_565  S
C2500      C2503   1.451   1_565  S
C2504      N2506   1.158       .  T
C2509      C2514   1.405       .  A
C2510      C2511   1.413       .  A
C2510      C2515   1.451       .  S
C2511      C2518   1.450       .  S
C2512      C2513   1.426   1_455  A
C2513      C2514   1.411       .  A
C2513      C2516   1.452       .  S
C2514      C2517   1.452       .  S
C2515      N2522   1.157       .  T
C2516      N2521   1.158       .  T
C2517      N2519   1.157       .  T
C2518      N2520   1.157       .  T
C2523      C2524   1.418       .  A
C2523      C2528   1.416       .  A
C2524      C2525   1.412       .  A
C2524      C2529   1.452       .  S
C2525      C2526   1.410       .  A
C2525      C2532   1.451       .  S
C2526      C2527   1.413       .  A
C2527      C2528   1.413       .  A
C2527      C2530   1.450       .  S
C2528      C2531   1.451       .  S
C2529      N2536   1.157       .  T
C2530      N2535   1.157       .  T
C2531      N2533   1.157       .  T
C2532      N2534   1.157       .  T
C2537      C2538   1.411       .  A
C2537      C2542   1.412       .  A
C2538      C2539   1.412       .  A
C2539      C2540   1.413       .  A
C2540      C2541   1.415       .  A
C2541      C2542   1.414       .  A
C2541      C2544   1.450       .  S
C2542      C2545   1.451       .  S
C2544      N2549   1.157       .  T
C2545      N2547   1.157   1_655  T
C2546      N2548   1.157       .  T
C2551      C2552   1.416       .  A
C2551      C2556   1.420       .  A
C2552      C2553   1.413       .  A
C2552      C2557   1.452       .  S
C2553      C2554   1.417       .  A
C2553      C2560   1.452       .  S
C2554      C2555   1.412       .  A
C2555      C2556   1.413       .  A
C2555      C2558   1.451       .  S
C2556      C2559   1.452       .  S
C2557      N2564   1.158   1_565  T
C2558      N2563   1.157       .  T
C2559      N2561   1.158       .  T
C2560      N2562   1.157   1_565  T
C2565      C2566   1.412       .  A
C2565      C2570   1.414       .  A
C2566      C2567   1.412       .  A
C2566      C2571   1.450       .  S
C2567      C2568   1.415       .  A
C2567      C2574   1.450       .  S
C2568      C2569   1.414       .  A
C2569      C2570   1.408       .  A
C2569      C2572   1.454       .  S
C2570      C2573   1.451       .  S
C2571      N2578   1.157       .  T
C2572      N2577   1.158       .  T
C2573      N2575   1.157       .  T
C2579      C2580   1.410       .  A
C2580      C2581   1.411       .  A
C2580      C2585   1.451       .  S
C2581      C2582   1.421       .  A
C2581      C2588   1.452       .  S
C2583      C2584   1.406       .  A
C2583      C2586   1.453       .  S
C2584      C2587   1.453       .  S
C2585      N2592   1.157       .  T
C2586      N2591   1.157       .  T
C2587      N2589   1.157       .  T
C2588      N2590   1.158       .  T
C2593      C2598   1.413       .  A
C2594      C2595   1.416       .  A
C2594      C2599   1.450       .  S
C2595      C2602   1.451       .  S
C2596      C2597   1.410       .  A
C2597      C2598   1.408       .  A
C2597      C2600   1.448       .  S
C2598      C2601   1.452       .  S
C2599      N2606   1.157       .  T
C2600      N2605   1.156       .  T
C2601      N2603   1.157       .  T
C2602      N2604   1.158       .  T
C2607      C2608   1.411       .  A
C2607      C2612   1.416       .  A
C2608      C2609   1.415       .  A
C2608      C2613   1.452       .  S
C2609      C2610   1.426       .  A
C2609      C2616   1.453       .  S
C2610      C2611   1.419       .  A
C2611      C2612   1.422       .  A
C2613      N2620   1.157   1_565  T
C2614      N2619   1.158       .  T
C2615      N2617   1.157       .  T
C2616      N2618   1.158   1_565  T
C2621      C2622   1.427       .  A
C2621      C2626   1.426       .  A
C2622      C2623   1.418       .  A
C2623      C2624   1.405       .  A
C2624      C2625   1.406       .  A
C2625      C2626   1.406       .  A
C2625      C2628   1.455       .  S
C2626      C2629   1.452       .  S
C2627      N2634   1.157       .  T
C2628      N2633   1.157       .  T
C2629      N2631   1.157   1_554  T
C2630      N2632   1.158       .  T
C2635      C2636   1.420       .  A
C2635      C2640   1.436       .  A
C2636      C2637   1.410       .  A
C2636      C2641   1.451       .  S
C2637      C2638   1.422       .  A
C2637      C2644   1.450       .  S
C2638      C2639   1.404       .  A
C2639      C2640   1.413       .  A
C2639      C2642   1.455       .  S
C2640      C2643   1.447       .  S
C2641      N2648   1.157       .  T
C2642      N2647   1.157       .  T
C2643      N2645   1.157       .  T
C2649      C2650   1.430       .  A
C2649      C2654   1.433       .  A
C2650      C2651   1.413       .  A
C2650      C2655   1.447       .  S
C2651      C2652   1.404       .  A
C2651      C2658   1.452       .  S
C2652      C2653   1.406       .  A
C2653      C2654   1.416       .  A
C2653      C2656   1.454       .  S
C2654      C2657   1.446       .  S
C2655      N2662   1.158       .  T
C2656      N2661   1.158       .  T
C2657      N2659   1.157       .  T
C2658      N2660   1.157       .  T
C2663      C2664   1.409       .  A
C2663      C2668   1.416       .  A
C2664      C2665   1.406       .  A
C2664      C2669   1.453       .  S
C2665      C2666   1.410       .  A
C2665      C2672   1.440       .  S
C2666      C2667   1.412       .  A
C2667      C2668   1.412       .  A
C2667      C2670   1.444       .  S
C2668      C2671   1.447       .  S
C2669      N2676   1.157       .  T
C2670      N2675   1.155       .  T
C2671      N2673   1.155       .  T
C2672      N2674   1.154       .  T
C2677      C2678   1.422       .  A
C2677      C2682   1.422       .  A
C2678      C2679   1.418       .  A
C2678      C2683   1.448       .  S
C2679      C2680   1.412       .  A
C2679      C2686   1.448       .  S
C2680      C2681   1.408       .  A
C2681      C2682   1.410       .  A
C2681      C2684   1.448       .  S
C2682      C2685   1.451       .  S
C2683      N2690   1.157       .  T
C2684      N2689   1.156       .  T
C2685      N2687   1.157       .  T
C2686      N2688   1.157       .  T
C2691      C2692   1.419       .  A
C2691      C2696   1.434       .  A
C2692      C2693   1.395       .  A
C2692      C2697   1.443       .  S
C2693      C2694   1.395       .  A
C2693      C2700   1.448       .  S
C2694      C2695   1.406       .  A
C2695      C2696   1.427       .  A
C2695      C2698   1.449       .  S
C2696      C2699   1.442       .  S
C2697      N2704   1.156       .  T
C2698      N2703   1.157       .  T
C2699      N2701   1.156       .  T
C2700      N2702   1.157       .  T
C2705      C2706   1.434       .  A
C2705      C2710   1.432       .  A
C2706      C2707   1.416       .  A
C2706      C2711   1.449       .  S
C2707      C2708   1.402       .  A
C2707      C2714   1.453       .  S
C2708      C2709   1.401       .  A
C2709      C2710   1.416       .  A
C2709      C2712   1.456       .  S
C2710      C2713   1.441       .  S
C2711      N2718   1.157       .  T
C2712      N2717   1.157       .  T
C2713      N2715   1.155       .  T
C2714      N2716   1.157       .  T
C2719      C2720   1.438       .  A
C2719      C2724   1.417       .  A
C2720      C2721   1.418       .  A
C2720      C2725   1.447       .  S
C2721      C2722   1.403       .  A
C2721      C2728   1.452       .  S
C2722      C2723   1.402       .  A
C2723      C2724   1.389       .  A
C2723      C2726   1.451       .  S
C2724      C2727   1.449       .  S
C2725      N2732   1.159       .  T
C2726      N2731   1.156       .  T
C2727      N2729   1.157       .  T
C2728      N2730   1.157       .  T
C2733      C2734   1.390       .  A
C2733      C2738   1.420       .  A
C2734      C2735   1.392       .  A
C2734      C2739   1.444       .  S
C2735      C2736   1.424       .  A
C2735      C2742   1.438       .  S
C2736      C2737   1.425       .  A
C2737      C2738   1.424       .  A
C2737      C2740   1.450       .  S
C2738      C2741   1.446       .  S
C2739      N2746   1.155       .  T
C2740      N2745   1.157       .  T
C2741      N2743   1.158       .  T
C2742      N2744   1.153       .  T
C2747      C2748   1.418       .  A
C2747      C2752   1.423       .  A
C2748      C2749   1.407       .  A
C2748      C2753   1.445       .  S
C2749      C2750   1.405       .  A
C2750      C2751   1.402       .  A
C2751      C2752   1.408       .  A
C2751      C2754   1.452       .  S
C2752      C2755   1.446       .  S
C2753      N2760   1.157       .  T
C2754      N2759   1.157       .  T
C2755      N2757   1.156       .  T
C2756      N2758   1.157       .  T
C2761      C2762   1.424       .  A
C2761      C2766   1.411       .  A
C2762      C2763   1.414       .  A
C2762      C2767   1.454       .  S
C2763      C2764   1.418       .  A
C2763      C2770   1.446       .  S
C2764      C2765   1.428       .  A
C2765      C2766   1.421       .  A
C2765      C2768   1.441       .  S
C2766      C2769   1.452       .  S
C2768      N2773   1.155       .  T
C2769      N2771   1.157       .  T
C2770      N2772   1.156       .  T
C2775      C2776   1.411       .  A
C2775      C2780   1.405       .  A
C2776      C2777   1.412       .  A
C2776      C2781   1.450       .  S
C2777      C2778   1.413       .  A
C2777      C2784   1.451       .  S
C2778      C2779   1.413       .  A
C2779      C2780   1.405       .  A
C2779      C2782   1.445       .  S
C2780      C2783   1.453       .  S
C2781      N2788   1.157       .  T
C2783      N2785   1.157       .  T
C2784      N2786   1.157   1_554  T
C2789      C2790   1.410       .  A
C2789      C2794   1.404       .  A
C2790      C2791   1.422       .  A
C2790      C2795   1.451       .  S
C2791      C2792   1.422       .  A
C2791      C2798   1.444       .  S
C2792      C2793   1.421       .  A
C2793      C2794   1.411       .  A
C2793      C2796   1.436       .  S
C2794      C2797   1.456       .  S
C2795      N2802   1.157       .  T
C2796      N2801   1.154       .  T
C2797      N2799   1.157       .  T
C2798      N2800   1.155       .  T
C2803      C2804   1.431       .  A
C2803      C2808   1.423       .  A
C2804      C2805   1.410       .  A
C2804      C2809   1.448       .  S
C2805      C2806   1.401       .  A
C2805      C2812   1.453       .  S
C2806      C2807   1.404       .  A
C2807      C2808   1.412       .  A
C2807      C2810   1.451       .  S
C2808      C2811   1.447       .  S
C2809      N2816   1.157       .  T
C2810      N2815   1.157       .  T
C2811      N2813   1.156       .  T
C2812      N2814   1.157       .  T
