geometry optimzed in LAMMPS
_audit_creation_date              2020-11-30 
_audit_creation_method            'lammps2cif' 
_symmetry_space_group_name_H-M    'P1' 
_symmetry_Int_Tables_number       1 
_symmetry_cell_setting            triclinic 
loop_ 
_symmetry_equiv_pos_as_xyz 
  x,y,z 
_cell_length_a                    37.93214067 
_cell_length_b                    38.04372198676836 
_cell_length_c                    33.463759039411805 
_cell_angle_alpha                 90.12463123946007 
_cell_angle_beta                  89.79623721368067 
_cell_angle_gamma                 119.99314026648783 
loop_ 
_atom_site_label 
_atom_site_type_symbol 
_atom_site_fract_x 
_atom_site_fract_y 
_atom_site_fract_z 
_atom_site_charge 
C1          C  0.23107648  0.20617438  0.15675546     0.79900
N2          N  0.22833132  0.20453445  0.11601421    -0.78400
C3          C  0.25729355  0.23572305  0.09363233     0.82300
N4          N  0.28836589  0.26840581  0.11197264    -0.78400
C5          C  0.29095583  0.27034895  0.15221740     0.82400
N6          N  0.26213380  0.23936592  0.17400470    -0.80100
C7          C  0.22273553  0.20907236  0.48839425     0.79900
N8          N  0.25326789  0.24158600  0.46948691    -0.78400
C9          C  0.28486637  0.27143097  0.48986328     0.82300
N10         N  0.28568768  0.26855317  0.03008479    -0.78400
C11         C  0.25532550  0.23631007  0.04982441     0.82400
N12         N  0.22370564  0.20634725  0.02895130    -0.80100
C13         C  0.25450856  0.48571198  0.15309619     0.79900
N14         N  0.25393592  0.48326490  0.11238894    -0.78400
C15         C  0.22267524  0.48274082  0.09172836     0.82300
N16         N  0.19222092  0.48416363  0.11177208    -0.78400
C17         C  0.19259703  0.48651623  0.15204035     0.82400
N18         N  0.22383927  0.48734214  0.17232381    -0.80100
C19         C  0.24588997  0.47615546  0.48473259     0.79900
N20         N  0.24888552  0.47753670  0.02540026    -0.78400
C21         C  0.22060615  0.48086118  0.04791939     0.82300
N22         N  0.18959233  0.48291214  0.02976188    -0.78400
C23         C  0.18708750  0.48243512  0.48945744     0.82400
N24         N  0.21518632  0.47901223  0.46761113    -0.80100
C25         C  0.46798209  0.22986817  0.15441425     0.79900
N26         N  0.46901252  0.19885259  0.17306731    -0.78400
C27         C  0.47004661  0.16879395  0.15222671     0.82300
N28         N  0.46996464  0.17002091  0.11176479    -0.78400
C29         C  0.46926812  0.20108164  0.09238034     0.82400
N30         N  0.46860452  0.23129887  0.11376024    -0.80100
C31         C  0.47350574  0.23336798  0.48707619     0.79900
N32         N  0.47033718  0.23251351  0.02761322    -0.78400
C33         C  0.47045054  0.20187513  0.04850566     0.82300
N34         N  0.47360190  0.17230553  0.02873154    -0.78400
C35         C  0.47664140  0.17285241  0.48835819     0.82400
N36         N  0.47704532  0.20381820  0.46786856    -0.80100
O37         O  0.39361106  0.01151061  0.28229855    -0.88500
C38         C  0.10406211  0.09320896  0.37822233     1.11500
O39         O  0.44281109  0.47614799  0.32073872    -1.36300
O40         O  0.07424929  0.09496479  0.27033215    -0.90000
O41         O  0.36281876  0.44463633  0.27305899    -0.90700
O42         O  0.44316495  0.43339123  0.23511775    -0.79500
O43         O  0.48398277  0.05334040  0.28437615    -1.01600
C44         C  0.06036795  0.47643654  0.24742963     1.21600
O45         O  0.48359671  0.43243326  0.32041780    -1.36500
Mn46       Mn  0.48385272  0.47486331  0.36468317     1.82100
O47         O  0.02919784  0.47699422  0.23562163    -0.78600
O48         O  0.11268002  0.06669060  0.28212613    -0.88000
C49         C  0.05589901  0.47209689  0.39440820     1.12700
C50         C  0.10510683  0.09102664  0.26313247     1.07400
O51         O  0.43972918  0.43242294  0.40545000    -0.79500
O52         O  0.02739470  0.01704619  0.32107952    -1.33200
O53         O  0.40448969  0.39772391  0.35686640    -0.98700
C54         C  0.48037953  0.35507896  0.26167996     1.06100
Mn55       Mn  0.08454268  0.02012070  0.32409613     1.48600
O56         O  0.44746370  0.34984263  0.27696808    -0.87900
Mn57       Mn  0.38507971  0.42332686  0.31900271     1.49600
O58         O  0.39842341  0.01027248  0.37143540    -0.91800
C59         C  0.48133916  0.04792402  0.24859743     1.19300
C60         C  0.36769626  0.47600221  0.38004885     1.11300
Mn61       Mn  0.48532193  0.47578671  0.27668035     1.81000
O62         O  0.06130483  0.47198186  0.35855071    -0.96900
Mn63       Mn  0.44055268  0.03030803  0.32396186     1.49300
C64         C  0.36754812  0.47932775  0.26484345     1.07900
Mn65       Mn  0.03599725  0.42652801  0.32001737     1.49900
C66         C  0.48118257  0.35471638  0.37785624     1.10800
O67         O  0.40630232  0.39825936  0.28293246    -1.02700
O68         O  0.10638749  0.06173537  0.37100363    -0.92400
C69         C  0.41125297  0.40272887  0.24711444     1.22100
O70         O  0.06494479  0.47506422  0.28375694    -1.03100
O71         O  0.07972185  0.10133672  0.35989888    -0.90500
O72         O  0.01493915  0.38141088  0.36331943    -0.90100
O73         O  0.35932944  0.44313992  0.36242295    -0.90200
Mn74       Mn  0.03224666  0.07457043  0.31821639     1.47900
O75         O  0.02470428  0.47260657  0.40591533    -0.78600
C76         C  0.40874458  0.40118733  0.39277208     1.15100
O77         O  0.48423594  0.01835838  0.23587521    -0.77400
O78         O  0.48594118  0.01888063  0.40594223    -0.77000
Mn79       Mn  0.42892205  0.37596047  0.32068783     1.51100
O80         O  0.01536175  0.38293781  0.27316145    -0.89300
O81         O  0.48868513  0.05569756  0.35792295    -0.96900
O82         O  0.44732337  0.35031828  0.36613533    -0.91900
C83         C  0.48976823  0.05187512  0.39373081     1.12900
C84         C  0.48217043  0.14173631  0.46656512    -0.00500
C85         C  0.00131193  0.15223701  0.42908886    -0.12400
C86         C  0.00577046  0.12421691  0.40584082     0.01700
C87         C  0.49179520  0.08431684  0.42030007    -0.00600
C88         C  0.47524689  0.07462615  0.45891138    -0.12300
C89         C  0.46894570  0.10221607  0.48151233     0.01600
H90         H  0.01241205  0.18254534  0.41732959     0.14600
H91         H  0.46539566  0.04474190  0.47065221     0.14600
C92         C  0.44578805  0.08776752  0.51808271     0.36300
C93         C  0.02451576  0.13780727  0.36702289     0.36200
N94         N  0.42670078  0.07580923  0.04707047    -0.44100
N95         N  0.03930428  0.14919597  0.33593102    -0.44100
C96         C  0.47666301  0.26761790  0.46348370    -0.00500
C97         C  0.01075170  0.28868152  0.43875522    -0.12400
C98         C  0.01373467  0.31822977  0.41201026     0.01700
C99         C  0.48141321  0.32676235  0.40892310    -0.00600
C100        C  0.44775653  0.30640847  0.43479131    -0.12300
C101        C  0.44533229  0.27728278  0.46213321     0.01600
H102        H  0.03496535  0.28135958  0.43981869     0.14600
H103        H  0.42291571  0.31274469  0.43325620     0.14600
C104        C  0.40944973  0.25620904  0.48682738     0.36300
C105        C  0.04968259  0.33757719  0.38706737     0.36200
N106        N  0.38059360  0.23938334  0.50653982    -0.44100
N107        N  0.07868604  0.35292705  0.36737945    -0.44100
C108        C  0.47055700  0.13513710  0.17442087    -0.00500
C109        C  0.45845272  0.12987477  0.21460508    -0.12400
C110        C  0.46119796  0.10166714  0.23881608     0.01700
C111        C  0.47483903  0.07596391  0.22264239    -0.00600
C112        C  0.98413882  0.07904580  0.18171890    -0.12300
C113        C  0.98375949  0.10930294  0.15792294     0.01600
H114        H  0.44756173  0.14871842  0.22786465     0.14600
H115        H  0.99325600  0.05884339  0.16861622     0.14600
C116        C  0.00041591  0.11512410  0.11807597     0.36300
C117        C  0.44963154  0.10057376  0.28021083     0.36200
N118        N  0.01467037  0.12013913  0.08649527    -0.44100
N119        N  0.44016957  0.10032663  0.31317742    -0.44100
C120        C  0.47657922  0.32455256  0.23166947    -0.00500
C121        C  0.44933439  0.28361960  0.24049110    -0.12400
C122        C  0.44459485  0.25260354  0.21474404     0.01700
C123        C  0.46765867  0.26209303  0.17910646    -0.00600
C124        C  0.99324310  0.30299790  0.16904309    -0.12300
C125        C  0.99772946  0.33416984  0.19485378     0.01600
H126        H  0.43194694  0.27568948  0.26810689     0.14600
H127        H  0.01044055  0.31064011  0.14133898     0.14600
C128        C  0.02195047  0.37525047  0.18113554     0.36300
C129        C  0.41510965  0.21131819  0.22537554     0.36200
N130        N  0.04078950  0.40743093  0.16782107    -0.44100
N131        N  0.39130307  0.17834194  0.23398424    -0.44100
C132        C  0.33726689  0.47450472  0.40844740    -0.00500
C133        C  0.30024108  0.46701656  0.39241350    -0.12400
C134        C  0.26946796  0.46523742  0.41671734     0.01700
C135        C  0.27614347  0.47302530  0.45846188    -0.00600
C136        C  0.31287586  0.47876023  0.47468691    -0.12300
C137        C  0.34294790  0.47861011  0.45012354     0.01600
H138        H  0.29518955  0.46211897  0.36045654     0.14600
H139        H  0.31809115  0.98303584  0.00661081     0.14600
C140        C  0.37739859  0.97917685  0.46870219     0.36300
C141        C  0.23114562  0.45378593  0.39744557     0.37600
N142        N  0.40390863  0.97814553  0.48454040    -0.44100
N143        N  0.20050442  0.44430628  0.38178054    -0.44100
C144        C  0.15387537  0.48455108  0.46859324    -0.00500
C145        C  0.11373383  0.46290425  0.48330636    -0.12400
C146        C  0.08095052  0.45902991  0.46033748     0.01700
C147        C  0.08837828  0.47673466  0.42197058    -0.00600
C148        C  0.12867579  0.99962182  0.40831492    -0.12300
C149        C  0.16120749  0.00454529  0.43145280     0.01600
H150        H  0.10777541  0.44746458  0.01183824     0.14600
H151        H  0.13500449  0.01386419  0.37913477     0.14600
C152        C  0.20189636  0.03082476  0.41634954     0.36300
C153        C  0.04005338  0.43452413  0.47548256     0.36200
N154        N  0.23442831  0.05195613  0.40423191    -0.44100
N155        N  0.00723780  0.41476144  0.48753900    -0.44100
C156        C  0.28749166  0.48664651  0.17776513    -0.00500
C157        C  0.29958298  0.51137455  0.21196372    -0.12400
C158        C  0.32574459  0.50964418  0.24014847     0.01700
C159        C  0.34092584  0.48277313  0.23448074    -0.00600
C160        C  0.32961941  0.45851121  0.19985074    -0.12300
C161        C  0.30328973  0.46039746  0.17144468     0.01600
H162        H  0.28742626  0.03141938  0.21740994     0.14600
H163        H  0.34102481  0.43773970  0.19518671     0.14600
C164        C  0.29118676  0.43349036  0.13744297     0.36300
C165        C  0.33393286  0.03370533  0.27603983     0.36200
N166        N  0.28145085  0.41188756  0.11018724    -0.44100
N167        N  0.34019361  0.05278845  0.30485722    -0.44100
C168        C  0.09231756  0.47729952  0.22123525    -0.00500
C169        C  0.09999560  0.49524088  0.18327819    -0.12400
C170        C  0.13225985  0.49859782  0.15964611     0.01700
C171        C  0.15778156  0.48428881  0.17442359    -0.00600
C172        C  0.14969283  0.46614065  0.21213220    -0.12300
C173        C  0.11759719  0.46226749  0.23536371     0.01600
H174        H  0.08089131  0.00670539  0.17214468     0.14600
H175        H  0.16834264  0.45418788  0.22358916     0.14600
C176        C  0.11172191  0.44218201  0.27352895     0.36300
C177        C  0.13880433  0.01757495  0.12098072     0.36200
N178        N  0.10753781  0.42636221  0.30409657    -0.44100
N179        N  0.14369100  0.03263074  0.08990931    -0.44100
C180        C  0.31851700  0.30538024  0.46736352    -0.00500
C181        C  0.32423667  0.29785543  0.42758443    -0.12400
C182        C  0.35348644  0.32812118  0.40336816     0.01700
C183        C  0.37895888  0.36775151  0.41887664    -0.00600
C184        C  0.37453912  0.37507448  0.45924199    -0.12300
C185        C  0.34426814  0.34456966  0.48339430     0.01600
H186        H  0.30549509  0.26782274  0.41494333     0.14600
H187        H  0.39394672  0.40496390  0.47165386     0.14600
C188        C  0.33902409  0.35515389  0.02354994     0.36300
C189        C  0.35643837  0.31646923  0.36286607     0.36200
N190        N  0.33475585  0.36390474  0.05561670    -0.44100
N191        N  0.35823942  0.30626661  0.33067456    -0.44100
C192        C  0.13197911  0.12256396  0.40822403    -0.00500
C193        C  0.14242914  0.10856517  0.44261847    -0.12400
C194        C  0.17059427  0.13594202  0.47036928     0.01700
C195        C  0.18893429  0.17816015  0.46370598    -0.00600
C196        C  0.17794409  0.19186977  0.42956299    -0.12300
C197        C  0.15024037  0.16478327  0.40184811     0.01600
H198        H  0.12900492  0.07618745  0.44753573     0.14600
H199        H  0.19210048  0.22418043  0.42375677     0.14600
C200        C  0.14380888  0.18133881  0.36555661     0.36300
C201        C  0.18186398  0.11992790  0.50393096     0.36200
N202        N  0.13899540  0.19459877  0.33633529    -0.44100
N203        N  0.19102319  0.10712652  0.53078961    -0.44100
C204        C  0.32228481  0.30695023  0.17318468    -0.00500
C205        C  0.31118990  0.31598732  0.21005130    -0.12400
C206        C  0.33914986  0.34773931  0.23359077     0.01700
C207        C  0.37987637  0.37220410  0.22023671    -0.00600
C208        C  0.39079792  0.36456802  0.18236683    -0.12300
C209        C  0.36242625  0.33200758  0.15884417     0.01600
H210        H  0.28026064  0.29764566  0.22104846     0.14600
H211        H  0.42193322  0.38278938  0.17196152     0.14600
C212        C  0.37600166  0.32361906  0.12153596     0.36300
C213        C  0.32448394  0.35354909  0.27158395     0.36200
N214        N  0.38696663  0.31688484  0.09167314    -0.44100
N215        N  0.31203414  0.35740246  0.30191636    -0.44100
C216        C  0.19954052  0.17400512  0.18311531    -0.00500
C217        C  0.16071178  0.14674641  0.16780783    -0.12400
C218        C  0.12931266  0.11891277  0.19292188     0.01700
C219        C  0.13627131  0.11848729  0.23424062    -0.00600
C220        C  0.17526340  0.14415148  0.24919859    -0.12300
C221        C  0.20679638  0.17135873  0.22442428     0.01600
H222        H  0.15464948  0.14732928  0.13625044     0.14600
H223        H  0.18110571  0.14304106  0.28078795     0.14600
C224        C  0.24622087  0.19544973  0.24285664     0.36300
C225        C  0.09140333  0.08954246  0.17506983     0.36200
N226        N  0.27761301  0.21462147  0.25797031    -0.44100
N227        N  0.06177905  0.06558135  0.15970784    -0.44100
C228        C  0.23107635  0.20617439  0.65675555     0.79900
N229        N  0.22833132  0.20453441  0.61601429    -0.78400
C230        C  0.25729367  0.23572295  0.59363243     0.82300
N231        N  0.28836601  0.26840569  0.61197276    -0.78400
C232        C  0.29095582  0.27034888  0.65221753     0.82400
N233        N  0.26213369  0.23936591  0.67400480    -0.80100
C234        C  0.22273525  0.20907253  0.98839418     0.79900
N235        N  0.25326764  0.24158616  0.96948681    -0.78400
C236        C  0.28486616  0.27143109  0.98986317     0.82300
N237        N  0.28568785  0.26855304  0.53008490    -0.78400
C238        C  0.25532568  0.23630991  0.54982450     0.82400
N239        N  0.22370586  0.20634706  0.52895138    -0.80100
C240        C  0.25450861  0.48571224  0.65309610     0.79900
N241        N  0.25393608  0.48326531  0.61238884    -0.78400
C242        C  0.22267548  0.48274132  0.59172823     0.82300
N243        N  0.19222110  0.48416408  0.61177191    -0.78400
C244        C  0.19259710  0.48651654  0.65204019     0.82400
N245        N  0.22383927  0.48734236  0.67232369    -0.80100
C246        C  0.24588946  0.47615462  0.98473272     0.79900
N247        N  0.24888595  0.47753744  0.52540013    -0.78400
C248        C  0.22060651  0.48086182  0.54791925     0.82300
N249        N  0.18959270  0.48291275  0.52976172    -0.78400
C250        C  0.18708708  0.48243443  0.98945758     0.82400
N251        N  0.21518584  0.47901143  0.96761129    -0.80100
C252        C  0.46798212  0.22986823  0.65441432     0.79900
N253        N  0.46901241  0.19885259  0.67306741    -0.78400
C254        C  0.47004645  0.16879391  0.65222682     0.82300
N255        N  0.46996455  0.17002087  0.61176491    -0.78400
C256        C  0.46926815  0.20108163  0.59238045     0.82400
N257        N  0.46860461  0.23129891  0.61376031    -0.80100
C258        C  0.47350557  0.23336799  0.98707609     0.79900
N259        N  0.47033729  0.23251347  0.52761332    -0.78400
C260        C  0.47045065  0.20187511  0.54850579     0.82300
N261        N  0.47360203  0.17230551  0.52873173    -0.78400
C262        C  0.47664127  0.17285242  0.98835800     0.82400
N263        N  0.47704515  0.20381820  0.96786841    -0.80100
O264        O  0.39361096  0.01151063  0.78229867    -0.88500
C265        C  0.10406183  0.09320903  0.87822224     1.11500
O266        O  0.44281089  0.47614794  0.82073871    -1.36300
O267        O  0.07424885  0.09496479  0.77033211    -0.90000
O268        O  0.36281854  0.44463615  0.77305891    -0.90700
O269        O  0.44316489  0.43339127  0.73511771    -0.79500
O270        O  0.48398266  0.05334038  0.78437620    -1.01600
C271        C  0.06036811  0.47643692  0.74742959     1.21600
O272        O  0.48359669  0.43243336  0.82041780    -1.36500
Mn273      Mn  0.48385260  0.47486338  0.86468317     1.82100
O274        O  0.02919798  0.47699458  0.73562157    -0.78600
O275        O  0.11267966  0.06669068  0.78212602    -0.88000
C276        C  0.05589900  0.47209704  0.89440820     1.12700
C277        C  0.10510642  0.09102670  0.76313240     1.07400
O278        O  0.43972911  0.43242294  0.90544997    -0.79500
O279        O  0.02739445  0.01704613  0.82107947    -1.33200
O280        O  0.40448966  0.39772389  0.85686636    -0.98700
C281        C  0.48037966  0.35507915  0.76167989     1.06100
Mn282      Mn  0.08454248  0.02012078  0.82409605     1.48600
O283        O  0.44746385  0.34984285  0.77696797    -0.87900
Mn284      Mn  0.38507956  0.42332675  0.81900265     1.49600
O285        O  0.39842333  0.01027243  0.87143542    -0.91800
C286        C  0.48133902  0.04792403  0.74859749     1.19300
C287        C  0.36769590  0.47600189  0.88004885     1.11300
Mn288      Mn  0.48532181  0.47578677  0.77668035     1.81000
O289        O  0.06130490  0.47198207  0.85855071    -0.96900
Mn290      Mn  0.44055260  0.03030803  0.82396192     1.49300
C291        C  0.36754782  0.47932756  0.76484348     1.07900
Mn292      Mn  0.03599740  0.42652831  0.82001728     1.49900
C293        C  0.48118268  0.35471649  0.87785612     1.10800
O294        O  0.40630232  0.39825939  0.78293243    -1.02700
O295        O  0.10638727  0.06173546  0.87100355    -0.92400
C296        C  0.41125295  0.40272890  0.74711441     1.22100
O297        O  0.06494493  0.47506455  0.78375690    -1.03100
O298        O  0.07972149  0.10133671  0.85989883    -0.90500
O299        O  0.01493926  0.38141114  0.86331925    -0.90100
O300        O  0.35932915  0.44313965  0.86242288    -0.90200
Mn301      Mn  0.03224626  0.07457030  0.81821638     1.47900
O302        O  0.02470429  0.47260676  0.90591529    -0.78600
C303        C  0.40874453  0.40118730  0.89277203     1.15100
O304        O  0.48423581  0.01835841  0.73587522    -0.77400
O305        O  0.48594115  0.01888064  0.90594221    -0.77000
Mn306      Mn  0.42892209  0.37596054  0.82068777     1.51100
O307        O  0.01536199  0.38293819  0.77316135    -0.89300
O308        O  0.48868508  0.05569765  0.85792301    -0.96900
O309        O  0.44732343  0.35031834  0.86613523    -0.91900
C310        C  0.48976818  0.05187507  0.89373090     1.12900
C311        C  0.48217030  0.14173620  0.96656501    -0.00500
C312        C  0.00131155  0.15223700  0.92908854    -0.12400
C313        C  0.00577005  0.12421677  0.90584062     0.01700
C314        C  0.49179512  0.08431683  0.92030008    -0.00600
C315        C  0.47524647  0.07462501  0.95891182    -0.12300
C316        C  0.46894563  0.10221605  0.98151223     0.01600
H317        H  0.01241171  0.18254519  0.91732930     0.14600
H318        H  0.46539650  0.04474392  0.97065159     0.14600
C319        C  0.44578793  0.08776751  0.01808257     0.36300
C320        C  0.02451529  0.13780697  0.86702269     0.36200
N321        N  0.42670090  0.07580919  0.54707063    -0.44100
N322        N  0.03930375  0.14919564  0.83593081    -0.44100
C323        C  0.47666292  0.26761789  0.96348358    -0.00500
C324        C  0.01075196  0.28868162  0.93875508    -0.12400
C325        C  0.01373479  0.31822994  0.91201011     0.01700
C326        C  0.48141326  0.32676239  0.90892291    -0.00600
C327        C  0.44775686  0.30640845  0.93479116    -0.12300
C328        C  0.44533223  0.27728277  0.96213302     0.01600
H329        H  0.03496526  0.28135977  0.93981853     0.14600
H330        H  0.42291549  0.31274491  0.93325602     0.14600
C331        C  0.40944956  0.25620894  0.98682704     0.36300
C332        C  0.04968260  0.33757732  0.88706718     0.36200
N333        N  0.38059332  0.23938316  0.00653933    -0.44100
N334        N  0.07868603  0.35292709  0.86737925    -0.44100
C335        C  0.47055679  0.13513707  0.67442099    -0.00500
C336        C  0.45845249  0.12987466  0.71460517    -0.12400
C337        C  0.46119775  0.10166709  0.73881620     0.01700
C338        C  0.47483883  0.07596388  0.72264249    -0.00600
C339        C  0.98413867  0.07904607  0.68171925    -0.12300
C340        C  0.98375970  0.10930318  0.65792322     0.01600
H341        H  0.44756141  0.14871838  0.72786480     0.14600
H342        H  0.99325632  0.05884332  0.66861630     0.14600
C343        C  0.00041679  0.11512477  0.61807647     0.36300
C344        C  0.44963140  0.10057372  0.78021096     0.36200
N345        N  0.01467180  0.12014024  0.58649599    -0.44100
N346        N  0.44016948  0.10032662  0.81317756    -0.44100
C347        C  0.47657937  0.32455271  0.73166946    -0.00500
C348        C  0.44933412  0.28361972  0.74049134    -0.12400
C349        C  0.44459480  0.25260374  0.71474402     0.01700
C350        C  0.46765879  0.26209315  0.67910655    -0.00600
C351        C  0.99324343  0.30299797  0.66904329    -0.12300
C352        C  0.99772990  0.33417001  0.69485386     0.01600
H353        H  0.43194693  0.27568981  0.76810638     0.14600
H354        H  0.01044103  0.31064011  0.64133914     0.14600
C355        C  0.02195125  0.37525061  0.68113568     0.36300
C356        C  0.41510951  0.21131842  0.72537546     0.36200
N357        N  0.04079064  0.40743101  0.66782118    -0.44100
N358        N  0.39130287  0.17834222  0.73398416    -0.44100
C359        C  0.33726648  0.47450424  0.90844741    -0.00500
C360        C  0.30024053  0.46701576  0.89241364    -0.12400
C361        C  0.26946733  0.46523640  0.91671750     0.01700
C362        C  0.27614295  0.47302447  0.95846199    -0.00600
C363        C  0.31287544  0.47875966  0.97468681    -0.12300
C364        C  0.34294755  0.47860968  0.95012355     0.01600
H365        H  0.29518890  0.46211804  0.86045660     0.14600
H366        H  0.31809108  0.98303549  0.50661089     0.14600
C367        C  0.37739859  0.97917706  0.96870200     0.36300
C368        C  0.23114482  0.45378446  0.89744592     0.37600
N369        N  0.40390858  0.97814567  0.98454019    -0.44100
N370        N  0.20050347  0.44430444  0.88178103    -0.44100
C371        C  0.15387508  0.48455062  0.96859334    -0.00500
C372        C  0.11373354  0.46290404  0.98330620    -0.12400
C373        C  0.08095028  0.45902983  0.96033749     0.01700
C374        C  0.08837818  0.47673465  0.92197062    -0.00600
C375        C  0.12867570  0.99962186  0.90831502    -0.12300
C376        C  0.16120742  0.00454534  0.93145281     0.01600
H377        H  0.10777588  0.44746505  0.51183803     0.14600
H378        H  0.13500446  0.01386444  0.87913472     0.14600
C379        C  0.20189631  0.03082491  0.91634959     0.36300
C380        C  0.04005309  0.43452423  0.97548256     0.36200
N381        N  0.23442827  0.05195636  0.90423204    -0.44100
N382        N  0.00723746  0.41476170  0.98753896    -0.44100
C383        C  0.28749159  0.48664662  0.67776510    -0.00500
C384        C  0.29958279  0.51137425  0.71196384    -0.12400
C385        C  0.32574420  0.50964389  0.74014868     0.01700
C386        C  0.34092555  0.48277295  0.73448080    -0.00600
C387        C  0.32961930  0.45851136  0.69985064    -0.12300
C388        C  0.30328977  0.46039769  0.67144451     0.01600
H389        H  0.28742606  0.03141975  0.71741022     0.14600
H390        H  0.34102489  0.43773980  0.69518645     0.14600
C391        C  0.29118704  0.43349091  0.63744259     0.36300
C392        C  0.33393299  0.03370558  0.77603994     0.36200
N393        N  0.28145136  0.41188833  0.61018669    -0.44100
N394        N  0.34019387  0.05278882  0.80485728    -0.44100
C395        C  0.09231772  0.47729996  0.72123518    -0.00500
C396        C  0.09999575  0.49524132  0.68327812    -0.12400
C397        C  0.13225995  0.49859821  0.65964598     0.01700
C398        C  0.15778161  0.48428912  0.67442341    -0.00600
C399        C  0.14969284  0.46614098  0.71213199    -0.12300
C400        C  0.11759732  0.46226788  0.73536360     0.01600
H401        H  0.08089124  0.00670596  0.67214465     0.14600
H402        H  0.16834270  0.45418809  0.72358897     0.14600
C403        C  0.11172211  0.44218246  0.77352887     0.36300
C404        C  0.13880468  0.01757567  0.62098093     0.36200
N405        N  0.10753804  0.42636271  0.80409651    -0.44100
N406        N  0.14369156  0.03263172  0.58990963    -0.44100
C407        C  0.31851684  0.30538027  0.96736343    -0.00500
C408        C  0.32423649  0.29785535  0.92758433    -0.12400
C409        C  0.35348638  0.32812114  0.90336812     0.01700
C410        C  0.37895885  0.36775146  0.91887660    -0.00600
C411        C  0.37453904  0.37507435  0.95924190    -0.12300
C412        C  0.34426807  0.34456967  0.98339424     0.01600
H413        H  0.30549497  0.26782282  0.91494329     0.14600
H414        H  0.39394684  0.40496398  0.97165387     0.14600
C415        C  0.33902410  0.35515383  0.52354997     0.36300
C416        C  0.35643841  0.31646918  0.86286609     0.36200
N417        N  0.33475585  0.36390468  0.55561672    -0.44100
N418        N  0.35823951  0.30626653  0.83067462    -0.44100
C419        C  0.13197881  0.12256402  0.90822393    -0.00500
C420        C  0.14242885  0.10856543  0.94261844    -0.12400
C421        C  0.17059391  0.13594218  0.97036928     0.01700
C422        C  0.18893402  0.17816029  0.96370589    -0.00600
C423        C  0.17794373  0.19186955  0.92956287    -0.12300
C424        C  0.15024012  0.16478332  0.90184793     0.01600
H425        H  0.12900445  0.07618743  0.94753581     0.14600
H426        H  0.19210044  0.22418083  0.92375649     0.14600
C427        C  0.14380867  0.18133883  0.86555638     0.36300
C428        C  0.18186349  0.11992814  0.00393108     0.36200
N429        N  0.13899519  0.19459875  0.83633501    -0.44100
N430        N  0.19102254  0.10712674  0.03078982    -0.44100
C431        C  0.32228481  0.30695016  0.67318481    -0.00500
C432        C  0.31118980  0.31598712  0.71005150    -0.12400
C433        C  0.33914986  0.34773921  0.73359088     0.01700
C434        C  0.37987635  0.37220407  0.72023674    -0.00600
C435        C  0.39079802  0.36456814  0.68236679    -0.12300
C436        C  0.36242622  0.33200760  0.65884423     0.01600
H437        H  0.28026082  0.29764556  0.72104864     0.14600
H438        H  0.42193299  0.38278940  0.67196151     0.14600
C439        C  0.37600161  0.32361915  0.62153595     0.36300
C440        C  0.32448396  0.35354894  0.77158411     0.36200
N441        N  0.38696657  0.31688501  0.59167309    -0.44100
N442        N  0.31203419  0.35740229  0.80191654    -0.44100
C443        C  0.19954027  0.17400523  0.68311541    -0.00500
C444        C  0.16071161  0.14674645  0.66780776    -0.12400
C445        C  0.12931242  0.11891284  0.69292181     0.01700
C446        C  0.13627091  0.11848745  0.73424061    -0.00600
C447        C  0.17526291  0.14415177  0.74919879    -0.12300
C448        C  0.20679595  0.17135900  0.72442447     0.01600
H449        H  0.15464946  0.14732921  0.63625045     0.14600
H450        H  0.18110507  0.14304144  0.78078803     0.14600
C451        C  0.24622033  0.19545012  0.74285700     0.36300
C452        C  0.09140317  0.08954248  0.67506963     0.36200
N453        N  0.27761237  0.21462195  0.75797083    -0.44100
N454        N  0.06177897  0.06558135  0.65970753    -0.44100
C455        C  0.23107636  0.70617446  0.15675556     0.79900
N456        N  0.22833126  0.70453450  0.11601431    -0.78400
C457        C  0.25729356  0.73572305  0.09363242     0.82300
N458        N  0.28836591  0.76840579  0.11197273    -0.78400
C459        C  0.29095582  0.77034898  0.15221747     0.82400
N460        N  0.26213372  0.73936599  0.17400480    -0.80100
C461        C  0.22273544  0.70907235  0.48839419     0.79900
N462        N  0.25326778  0.74158601  0.46948683    -0.78400
C463        C  0.28486625  0.77143099  0.48986318     0.82300
N464        N  0.28568775  0.76855307  0.03008488    -0.78400
C465        C  0.25532554  0.73631001  0.04982450     0.82400
N466        N  0.22370569  0.70634720  0.02895138    -0.80100
C467        C  0.25450860  0.98571198  0.15309609     0.79900
N468        N  0.25393601  0.98326496  0.11238882    -0.78400
C469        C  0.22267534  0.98274092  0.09172824     0.82300
N470        N  0.19222101  0.98416370  0.11177196    -0.78400
C471        C  0.19259708  0.98651624  0.15204025     0.82400
N472        N  0.22383929  0.98734211  0.17232369    -0.80100
C473        C  0.24588980  0.97615512  0.48473274     0.79900
N474        N  0.24888565  0.97753696  0.02540010    -0.78400
C475        C  0.22060627  0.98086139  0.04791925     0.82300
N476        N  0.18959247  0.98291238  0.02976174    -0.78400
C477        C  0.18708735  0.98243483  0.48945755     0.82400
N478        N  0.21518614  0.97901187  0.46761125    -0.80100
C479        C  0.46798223  0.72986827  0.15441426     0.79900
N480        N  0.46901266  0.69885269  0.17306735    -0.78400
C481        C  0.47004675  0.66879404  0.15222676     0.82300
N482        N  0.46996477  0.67002099  0.11176484    -0.78400
C483        C  0.46926824  0.70108171  0.09238039     0.82400
N484        N  0.46860464  0.73129894  0.11376027    -0.80100
C485        C  0.47350573  0.73336790  0.48707612     0.79900
N486        N  0.47033729  0.73251356  0.02761327    -0.78400
C487        C  0.47045063  0.70187518  0.04850572     0.82300
N488        N  0.47360190  0.67230556  0.02873161    -0.78400
C489        C  0.47664152  0.67285239  0.48835823     0.82400
N490        N  0.47704540  0.70381814  0.46786854    -0.80100
O491        O  0.39361117  0.51151071  0.28229857    -0.88500
C492        C  0.10406200  0.59320887  0.37822227     1.11500
O493        O  0.44281105  0.97614796  0.32073870    -1.36300
O494        O  0.07424908  0.59496470  0.27033218    -0.90000
O495        O  0.36281869  0.94463623  0.27305900    -0.90700
O496        O  0.44316497  0.93339122  0.23511774    -0.79500
O497        O  0.48398288  0.55334044  0.28437616    -1.01600
C498        C  0.06036813  0.97643670  0.24742967     1.21600
O499        O  0.48359674  0.93243328  0.32041783    -1.36500
Mn500      Mn  0.48385271  0.97486333  0.36468319     1.82100
O501        O  0.02919803  0.97699439  0.23562166    -0.78600
O502        O  0.11267979  0.56669047  0.28212600    -0.88000
C503        C  0.05589905  0.97209698  0.39440826     1.12700
C504        C  0.10510660  0.59102655  0.26313243     1.07400
O505        O  0.43972917  0.93242294  0.40545000    -0.79500
O506        O  0.02739455  0.51704603  0.32107950    -1.33200
O507        O  0.40448971  0.89772388  0.35686641    -0.98700
C508        C  0.48037960  0.85507901  0.26168001     1.06100
Mn509      Mn  0.08454254  0.52012059  0.32409605     1.48600
O510        O  0.44746378  0.84984272  0.27696806    -0.87900
Mn511      Mn  0.38507969  0.92332681  0.31900273     1.49600
O512        O  0.39842353  0.51027259  0.37143539    -0.91800
C513        C  0.48133927  0.54792406  0.24859743     1.19300
C514        C  0.36769616  0.97600208  0.38004889     1.11300
Mn515      Mn  0.48532194  0.97578671  0.27668035     1.81000
O516        O  0.06130489  0.97198196  0.35855078    -0.96900
Mn517      Mn  0.44055279  0.53030810  0.32396187     1.49300
C518        C  0.36754802  0.97932762  0.26484344     1.07900
Mn519      Mn  0.03599735  0.92652815  0.32001739     1.49900
C520        C  0.48118259  0.85471635  0.37785619     1.10800
O521        O  0.40630236  0.89825938  0.28293248    -1.02700
O522        O  0.10638743  0.56173531  0.37100351    -0.92400
C523        C  0.41125298  0.90272888  0.24711446     1.22100
O524        O  0.06494497  0.97506436  0.28375699    -1.03100
O525        O  0.07972164  0.60133655  0.35989890    -0.90500
O526        O  0.01493917  0.88141104  0.36331939    -0.90100
O527        O  0.35932939  0.94313981  0.36242298    -0.90200
Mn528      Mn  0.03224646  0.57457025  0.31821643     1.47900
O529        O  0.02470434  0.97260669  0.40591537    -0.78600
C530        C  0.40874459  0.90118731  0.39277209     1.15100
O531        O  0.48423597  0.51835839  0.23587522    -0.77400
O532        O  0.48594129  0.51888065  0.40594222    -0.77000
Mn533      Mn  0.42892209  0.87596049  0.32068783     1.51100
O534        O  0.01536189  0.88293797  0.27316147    -0.89300
O535        O  0.48868525  0.55569759  0.35792296    -0.96900
O536        O  0.44732337  0.85031824  0.36613529    -0.91900
C537        C  0.48976839  0.55187516  0.39373081     1.12900
C538        C  0.48217066  0.64173633  0.46656520    -0.00500
C539        C  0.00131185  0.65223703  0.42908865    -0.12400
C540        C  0.00577028  0.62421672  0.40584074     0.01700
C541        C  0.49179544  0.58431688  0.42030011    -0.00600
C542        C  0.47524732  0.57462630  0.45891145    -0.12300
C543        C  0.46894611  0.60221614  0.48151248     0.01600
H544        H  0.01241185  0.68254499  0.41732947     0.14600
H545        H  0.46539611  0.54474187  0.47065240     0.14600
C546        C  0.44578864  0.58776762  0.51808294     0.36300
C547        C  0.02451553  0.63780702  0.36702277     0.36200
N548        N  0.42670023  0.57580915  0.04707028    -0.44100
N549        N  0.03930400  0.64919564  0.33593087    -0.44100
C550        C  0.47666301  0.76761777  0.46348354    -0.00500
C551        C  0.01075136  0.78868118  0.43875460    -0.12400
C552        C  0.01373447  0.81822942  0.41200965     0.01700
C553        C  0.48141319  0.82676223  0.40892292    -0.00600
C554        C  0.44775693  0.80640873  0.43479157    -0.12300
C555        C  0.44533257  0.77728307  0.46213347     0.01600
H556        H  0.03496513  0.78135889  0.43981778     0.14600
H557        H  0.42291606  0.81274537  0.43325677     0.14600
C558        C  0.40945027  0.75620973  0.48682804     0.36300
C559        C  0.04968200  0.83757641  0.38706629     0.36200
N560        N  0.38059433  0.73938436  0.50654079    -0.44100
N561        N  0.07868521  0.85292589  0.36737801    -0.44100
C562        C  0.47055714  0.63513718  0.17442091    -0.00500
C563        C  0.45845296  0.62987498  0.21460518    -0.12400
C564        C  0.46119820  0.60166729  0.23881613     0.01700
C565        C  0.47483918  0.57596400  0.22264241    -0.00600
C566        C  0.98413883  0.57904605  0.18171918    -0.12300
C567        C  0.98375978  0.60930312  0.15792312     0.01600
H568        H  0.44756213  0.64871859  0.22786472     0.14600
H569        H  0.99325633  0.55884320  0.16861621     0.14600
C570        C  0.00041645  0.61512440  0.11807622     0.36300
C571        C  0.44963182  0.60057395  0.28021090     0.36200
N572        N  0.01467111  0.62013962  0.08649559    -0.44100
N573        N  0.44016987  0.60032681  0.31317750    -0.44100
C574        C  0.47657933  0.82455259  0.23166951    -0.00500
C575        C  0.44933435  0.78361960  0.24049139    -0.12400
C576        C  0.44459498  0.75260363  0.21474409     0.01700
C577        C  0.46765883  0.76209313  0.17910651    -0.00600
C578        C  0.99324337  0.80299806  0.16904304    -0.12300
C579        C  0.99772959  0.83416997  0.19485383     0.01600
H580        H  0.43194718  0.77568961  0.26810670     0.14600
H581        H  0.01044055  0.81064015  0.14133922     0.14600
C582        C  0.02195055  0.87525061  0.18113551     0.36300
C583        C  0.41510975  0.71131827  0.22537559     0.36200
N584        N  0.04078951  0.90743108  0.16782105    -0.44100
N585        N  0.39130317  0.67834201  0.23398426    -0.44100
C586        C  0.33726677  0.97450454  0.40844749    -0.00500
C587        C  0.30024096  0.96701637  0.39241354    -0.12400
C588        C  0.26946783  0.96523717  0.41671745     0.01700
C589        C  0.27614332  0.97302499  0.45846202    -0.00600
C590        C  0.31287574  0.97875994  0.47468728    -0.12300
C591        C  0.34294775  0.97860986  0.45012366     0.01600
H592        H  0.29518947  0.96211885  0.36045670     0.14600
H593        H  0.31809095  0.48303545  0.00661117     0.14600
C594        C  0.37739874  0.47917710  0.46870211     0.36300
C595        C  0.23114549  0.95378568  0.39744563     0.37600
N596        N  0.40390882  0.47814577  0.48454026    -0.44100
N597        N  0.20050427  0.94430604  0.38178062    -0.44100
C598        C  0.15387528  0.98455091  0.46859334    -0.00500
C599        C  0.11373374  0.96290424  0.48330647    -0.12400
C600        C  0.08095048  0.95903001  0.46033761     0.01700
C601        C  0.08837829  0.97673469  0.42197067    -0.00600
C602        C  0.12867578  0.49962190  0.40831490    -0.12300
C603        C  0.16120753  0.50454551  0.43145273     0.01600
H604        H  0.10777559  0.94746478  0.01183798     0.14600
H605        H  0.13500445  0.51386433  0.37913465     0.14600
C606        C  0.20189639  0.53082513  0.41634949     0.36300
C607        C  0.04005332  0.93452443  0.47548276     0.36200
N608        N  0.23442833  0.55195663  0.40423191    -0.44100
N609        N  0.00723774  0.91476191  0.48753925    -0.44100
C610        C  0.28749168  0.98664650  0.17776505    -0.00500
C611        C  0.29958283  0.01137455  0.21196373    -0.12400
C612        C  0.32574442  0.00964399  0.24014848     0.01700
C613        C  0.34092575  0.98277301  0.23448070    -0.00600
C614        C  0.32961945  0.95851109  0.19985066    -0.12300
C615        C  0.30328976  0.96039744  0.17144460     0.01600
H616        H  0.28742632  0.53141963  0.21740996     0.14600
H617        H  0.34102480  0.93773975  0.19518664     0.14600
C618        C  0.29118680  0.93349034  0.13744287     0.36300
C619        C  0.33393322  0.53370571  0.27603972     0.36200
N620        N  0.28145086  0.91188753  0.11018714    -0.44100
N621        N  0.34019411  0.55278899  0.30485701    -0.44100
C622        C  0.09231775  0.97729970  0.22123528    -0.00500
C623        C  0.09999565  0.99524099  0.18327815    -0.12400
C624        C  0.13225988  0.99859783  0.15964604     0.01700
C625        C  0.15778162  0.98428886  0.17442351    -0.00600
C626        C  0.14969298  0.96614081  0.21213217    -0.12300
C627        C  0.11759742  0.96226773  0.23536375     0.01600
H628        H  0.08089118  0.50670537  0.17214467     0.14600
H629        H  0.16834282  0.95418807  0.22358913     0.14600
C630        C  0.11172229  0.94218241  0.27352907     0.36300
C631        C  0.13880439  0.51757506  0.12098084     0.36200
N632        N  0.10753829  0.92636275  0.30409675    -0.44100
N633        N  0.14369115  0.53263093  0.08990946    -0.44100
C634        C  0.31851690  0.80538024  0.46736343    -0.00500
C635        C  0.32423652  0.79785528  0.42758431    -0.12400
C636        C  0.35348642  0.82812115  0.40336814     0.01700
C637        C  0.37895886  0.86775147  0.41887663    -0.00600
C638        C  0.37453912  0.87507452  0.45924198    -0.12300
C639        C  0.34426806  0.84456965  0.48339424     0.01600
H640        H  0.30549511  0.76782287  0.41494331     0.14600
H641        H  0.39394665  0.90496378  0.47165380     0.14600
C642        C  0.33902413  0.85515380  0.02354996     0.36300
C643        C  0.35643841  0.81646919  0.36286608     0.36200
N644        N  0.33475592  0.86390468  0.05561672    -0.44100
N645        N  0.35823951  0.80626657  0.33067459    -0.44100
C646        C  0.13197903  0.62256388  0.40822395    -0.00500
C647        C  0.14242926  0.60856532  0.44261833    -0.12400
C648        C  0.17059433  0.63594200  0.47036917     0.01700
C649        C  0.18893424  0.67816012  0.46370592    -0.00600
C650        C  0.17794385  0.69186953  0.42956299    -0.12300
C651        C  0.15024019  0.66478318  0.40184808     0.01600
H652        H  0.12900495  0.57618721  0.44753561     0.14600
H653        H  0.19210031  0.72418054  0.42375676     0.14600
C654        C  0.14380858  0.68133869  0.36555663     0.36300
C655        C  0.18186414  0.61992792  0.50393080     0.36200
N656        N  0.13899503  0.69459868  0.33633536    -0.44100
N657        N  0.19102343  0.60712656  0.53078941    -0.44100
C658        C  0.32228483  0.80695024  0.17318475    -0.00500
C659        C  0.31119012  0.81598745  0.21005132    -0.12400
C660        C  0.33914991  0.84773933  0.23359085     0.01700
C661        C  0.37987640  0.87220413  0.22023675    -0.00600
C662        C  0.39079786  0.86456802  0.18236687    -0.12300
C663        C  0.36242624  0.83200761  0.15884420     0.01600
H664        H  0.28026050  0.79764558  0.22104862     0.14600
H665        H  0.42193328  0.88278947  0.17196149     0.14600
C666        C  0.37600160  0.82361909  0.12153598     0.36300
C667        C  0.32448399  0.85354908  0.27158407     0.36200
N668        N  0.38696660  0.81688494  0.09167315    -0.44100
N669        N  0.31203419  0.85740242  0.30191649    -0.44100
C670        C  0.19954033  0.67400526  0.18311543    -0.00500
C671        C  0.16071168  0.64674638  0.16780771    -0.12400
C672        C  0.12931256  0.61891270  0.19292184     0.01700
C673        C  0.13627108  0.61848731  0.23424063    -0.00600
C674        C  0.17526305  0.64415172  0.24919883    -0.12300
C675        C  0.20679603  0.67135905  0.22442450     0.01600
H676        H  0.15464953  0.64732912  0.13625054     0.14600
H677        H  0.18110521  0.64304142  0.28078804     0.14600
C678        C  0.24622037  0.69545033  0.24285708     0.36300
C679        C  0.09140331  0.58954232  0.17506969     0.36200
N680        N  0.27761238  0.71462230  0.25797093    -0.44100
N681        N  0.06177909  0.56558118  0.15970762    -0.44100
C682        C  0.23107645  0.70617435  0.65675547     0.79900
N683        N  0.22833135  0.70453439  0.61601422    -0.78400
C684        C  0.25729362  0.73572297  0.59363235     0.82300
N685        N  0.28836594  0.76840572  0.61197267    -0.78400
C686        C  0.29095583  0.77034890  0.65221742     0.82400
N687        N  0.26213374  0.73936590  0.67400474    -0.80100
C688        C  0.22273537  0.70907248  0.98839426     0.79900
N689        N  0.25326778  0.74158608  0.96948688    -0.78400
C690        C  0.28486630  0.77143101  0.98986327     0.82300
N691        N  0.28568776  0.76855308  0.53008481    -0.78400
C692        C  0.25532561  0.73630995  0.54982443     0.82400
N693        N  0.22370581  0.70634707  0.52895132    -0.80100
C694        C  0.25450859  0.98571224  0.65309622     0.79900
N695        N  0.25393603  0.98326524  0.61238897    -0.78400
C696        C  0.22267541  0.98274120  0.59172835     0.82300
N697        N  0.19222105  0.98416398  0.61177203    -0.78400
C698        C  0.19259708  0.98651652  0.65204030     0.82400
N699        N  0.22383927  0.98734237  0.67232382    -0.80100
C700        C  0.24588965  0.97615497  0.98473259     0.79900
N701        N  0.24888581  0.97753717  0.52540025    -0.78400
C702        C  0.22060640  0.98086161  0.54791937     0.82300
N703        N  0.18959258  0.98291254  0.52976183    -0.78400
C704        C  0.18708725  0.98243475  0.98945746     0.82400
N705        N  0.21518604  0.97901181  0.96761112    -0.80100
C706        C  0.46798195  0.72986816  0.65441428     0.79900
N707        N  0.46901228  0.69885255  0.67306738    -0.78400
C708        C  0.47004637  0.66879391  0.65222682     0.82300
N709        N  0.46996450  0.67002085  0.61176490    -0.78400
C710        C  0.46926806  0.70108159  0.59238042     0.82400
N711        N  0.46860447  0.73129884  0.61376027    -0.80100
C712        C  0.47350564  0.73336807  0.98707615     0.79900
N713        N  0.47033723  0.73251341  0.52761324    -0.78400
C714        C  0.47045061  0.70187508  0.54850576     0.82300
N715        N  0.47360207  0.67230551  0.52873174    -0.78400
C716        C  0.47664117  0.67285242  0.98835809     0.82400
N717        N  0.47704514  0.70381826  0.96786845    -0.80100
O718        O  0.39361080  0.51151049  0.78229866    -0.88500
C719        C  0.10406197  0.59320909  0.87822226     1.11500
O720        O  0.44281097  0.97614797  0.82073870    -1.36300
O721        O  0.07424910  0.59496488  0.77033210    -0.90000
O722        O  0.36281865  0.94463628  0.77305891    -0.90700
O723        O  0.44316490  0.93339127  0.73511770    -0.79500
O724        O  0.48398251  0.55334034  0.78437618    -1.01600
C725        C  0.06036797  0.97643676  0.74742960     1.21600
O726        O  0.48359669  0.93243333  0.82041779    -1.36500
Mn727      Mn  0.48385263  0.97486334  0.86468316     1.82100
O728        O  0.02919783  0.97699441  0.73562159    -0.78600
O729        O  0.11267988  0.56669077  0.78212613    -0.88000
C730        C  0.05589898  0.97209700  0.89440817     1.12700
C731        C  0.10510666  0.59102678  0.76313245     1.07400
O732        O  0.43972911  0.93242291  0.90544996    -0.79500
O733        O  0.02739459  0.51704626  0.82107947    -1.33200
O734        O  0.40448963  0.89772387  0.85686634    -0.98700
C735        C  0.48037960  0.85507911  0.76167989     1.06100
Mn736      Mn  0.08454260  0.52012084  0.82409610     1.48600
O737        O  0.44746379  0.84984282  0.77696798    -0.87900
Mn738      Mn  0.38507961  0.92332681  0.81900263     1.49600
O739        O  0.39842317  0.51027232  0.87143546    -0.91800
C740        C  0.48133888  0.54792398  0.74859747     1.19300
C741        C  0.36769602  0.97600202  0.88004879     1.11300
Mn742      Mn  0.48532185  0.97578676  0.77668033     1.81000
O743        O  0.06130484  0.97198202  0.85855068    -0.96900
Mn744      Mn  0.44055244  0.53030795  0.82396191     1.49300
C745        C  0.36754795  0.97932770  0.76484349     1.07900
Mn746      Mn  0.03599732  0.92652819  0.82001728     1.49900
C747        C  0.48118263  0.85471649  0.87785617     1.10800
O748        O  0.40630235  0.89825942  0.78293244    -1.02700
O749        O  0.10638737  0.56173548  0.87100363    -0.92400
C750        C  0.41125293  0.90272889  0.74711443     1.22100
O751        O  0.06494481  0.97506444  0.78375690    -1.03100
O752        O  0.07972167  0.60133677  0.85989880    -0.90500
O753        O  0.01493926  0.88141105  0.86331930    -0.90100
O754        O  0.35932925  0.94313978  0.86242283    -0.90200
Mn755      Mn  0.03224648  0.57457047  0.81821636     1.47900
O756        O  0.02470425  0.97260668  0.90591528    -0.78600
C757        C  0.40874451  0.90118727  0.89277201     1.15100
O758        O  0.48423571  0.51835837  0.73587523    -0.77400
O759        O  0.48594103  0.51888068  0.90594223    -0.77000
Mn760      Mn  0.42892207  0.87596052  0.82068777     1.51100
O761        O  0.01536188  0.88293801  0.77316131    -0.89300
O762        O  0.48868492  0.55569753  0.85792292    -0.96900
O763        O  0.44732342  0.85031833  0.86613522    -0.91900
C764        C  0.48976806  0.55187516  0.89373076     1.12900
C765        C  0.48217012  0.64173630  0.96656499    -0.00500
C766        C  0.00131174  0.65223716  0.92908864    -0.12400
C767        C  0.00577024  0.62421694  0.90584070     0.01700
C768        C  0.49179498  0.58431682  0.92030001    -0.00600
C769        C  0.47524665  0.57462637  0.95891118    -0.12300
C770        C  0.46894531  0.60221604  0.98151220     0.01600
H771        H  0.01241183  0.68254529  0.91732944     0.14600
H772        H  0.46539508  0.54474141  0.97065228     0.14600
C773        C  0.44578751  0.58776753  0.01808245     0.36300
C774        C  0.02451555  0.63780721  0.86702280     0.36200
N775        N  0.42670164  0.57580927  0.54707094    -0.44100
N776        N  0.03930409  0.64919591  0.83593095    -0.44100
C777        C  0.47666289  0.76761800  0.96348370    -0.00500
C778        C  0.01075196  0.78868201  0.93875561    -0.12400
C779        C  0.01373499  0.81823026  0.91201061     0.01700
C780        C  0.48141320  0.82676248  0.90892305    -0.00600
C781        C  0.44775633  0.80640822  0.93479093    -0.12300
C782        C  0.44533197  0.77728253  0.96213281     0.01600
H783        H  0.03496581  0.78136029  0.93981936     0.14600
H784        H  0.42291520  0.81274421  0.93325552     0.14600
C785        C  0.40944915  0.75620833  0.98682651     0.36300
C786        C  0.04968309  0.83757798  0.88706805     0.36200
N787        N  0.38059275  0.73938231  0.00653852    -0.44100
N788        N  0.07868673  0.85292803  0.86738043    -0.44100
C789        C  0.47055669  0.63513707  0.67442099    -0.00500
C790        C  0.45845217  0.62987472  0.71460522    -0.12400
C791        C  0.46119749  0.60166700  0.73881614     0.01700
C792        C  0.47483867  0.57596385  0.72264246    -0.00600
C793        C  0.98413861  0.57904613  0.68171916    -0.12300
C794        C  0.98375952  0.60930315  0.65792309     0.01600
H795        H  0.44756120  0.64871807  0.72786463     0.14600
H796        H  0.99325622  0.55884331  0.66861618     0.14600
C797        C  0.00041641  0.61512464  0.61807629     0.36300
C798        C  0.44963108  0.60057355  0.78021086     0.36200
N799        N  0.01467128  0.62014000  0.58649575    -0.44100
N800        N  0.44016911  0.60032643  0.81317744    -0.44100
C801        C  0.47657928  0.82455267  0.73166943    -0.00500
C802        C  0.44933403  0.78361969  0.74049123    -0.12400
C803        C  0.44459462  0.75260368  0.71474395     0.01700
C804        C  0.46765863  0.76209308  0.67910649    -0.00600
C805        C  0.99324339  0.80299800  0.66904288    -0.12300
C806        C  0.99772973  0.83416991  0.69485377     0.01600
H807        H  0.43194676  0.77568976  0.76810640     0.14600
H808        H  0.01044069  0.81064002  0.64133928     0.14600
C809        C  0.02195117  0.87525053  0.68113562     0.36300
C810        C  0.41510927  0.71131837  0.72537538     0.36200
N811        N  0.04079059  0.90743095  0.66782119    -0.44100
N812        N  0.39130258  0.67834217  0.73398407    -0.44100
C813        C  0.33726661  0.97450444  0.90844736    -0.00500
C814        C  0.30024067  0.96701596  0.89241352    -0.12400
C815        C  0.26946751  0.96523669  0.91671741     0.01700
C816        C  0.27614315  0.97302482  0.95846190    -0.00600
C817        C  0.31287568  0.97876005  0.97468702    -0.12300
C818        C  0.34294769  0.97860997  0.95012349     0.01600
H819        H  0.29518906  0.96211821  0.86045659     0.14600
H820        H  0.31809128  0.48303589  0.50661100     0.14600
C821        C  0.37739844  0.47917675  0.96870210     0.36300
C822        C  0.23114498  0.95378474  0.89744576     0.37600
N823        N  0.40390853  0.47814544  0.98454025    -0.44100
N824        N  0.20050360  0.94430470  0.88178091    -0.44100
C825        C  0.15387518  0.98455083  0.96859327    -0.00500
C826        C  0.11373361  0.96290404  0.98330636    -0.12400
C827        C  0.08095036  0.95902984  0.96033745     0.01700
C828        C  0.08837820  0.97673466  0.92197059    -0.00600
C829        C  0.12867571  0.49962177  0.90831509    -0.12300
C830        C  0.16120738  0.50454514  0.93145288     0.01600
H831        H  0.10777574  0.94746507  0.51183821     0.14600
H832        H  0.13500452  0.51386438  0.87913477     0.14600
C833        C  0.20189628  0.53082458  0.91634972     0.36300
C834        C  0.04005319  0.93452411  0.97548246     0.36200
N835        N  0.23442825  0.55195594  0.90423216    -0.44100
N836        N  0.00723760  0.91476146  0.98753887    -0.44100
C837        C  0.28749161  0.98664665  0.67776519    -0.00500
C838        C  0.29958293  0.01137441  0.71196384    -0.12400
C839        C  0.32574443  0.00964412  0.74014864     0.01700
C840        C  0.34092570  0.98277311  0.73448081    -0.00600
C841        C  0.32961935  0.95851139  0.69985072    -0.12300
C842        C  0.30328977  0.96039770  0.67144462     0.01600
H843        H  0.28742587  0.53141956  0.71741025     0.14600
H844        H  0.34102487  0.93773984  0.69518657     0.14600
C845        C  0.29118697  0.93349085  0.63744276     0.36300
C846        C  0.33393259  0.53370516  0.77604009     0.36200
N847        N  0.28145124  0.91188822  0.61018690    -0.44100
N848        N  0.34019331  0.55278824  0.80485751    -0.44100
C849        C  0.09231756  0.97729976  0.72123519    -0.00500
C850        C  0.09999581  0.99524121  0.68327825    -0.12400
C851        C  0.13225999  0.99859823  0.65964610     0.01700
C852        C  0.15778158  0.98428907  0.67442352    -0.00600
C853        C  0.14969266  0.96614079  0.71213202    -0.12300
C854        C  0.11759708  0.96226758  0.73536358     0.01600
H855        H  0.08089134  0.50670587  0.67214462     0.14600
H856        H  0.16834252  0.95418779  0.72358900     0.14600
C857        C  0.11172165  0.94218191  0.77352872     0.36300
C858        C  0.13880453  0.51757549  0.62098074     0.36200
N859        N  0.10753743  0.92636194  0.80409626    -0.44100
N860        N  0.14369130  0.53263140  0.58990939    -0.44100
C861        C  0.31851696  0.80538022  0.96736351    -0.00500
C862        C  0.32423681  0.79785559  0.92758452    -0.12400
C863        C  0.35348648  0.82812113  0.90336814     0.01700
C864        C  0.37895889  0.86775147  0.91887660    -0.00600
C865        C  0.37453898  0.87507424  0.95924185    -0.12300
C866        C  0.34426815  0.84456964  0.98339429     0.01600
H867        H  0.30549499  0.76782247  0.91494328     0.14600
H868        H  0.39394688  0.90496419  0.97165391     0.14600
C869        C  0.33902400  0.85515385  0.52354991     0.36300
C870        C  0.35643847  0.81646915  0.86286609     0.36200
N871        N  0.33475568  0.86390467  0.55561666    -0.44100
N872        N  0.35823956  0.80626648  0.83067462    -0.44100
C873        C  0.13197898  0.62256411  0.90822393    -0.00500
C874        C  0.14242903  0.60856579  0.94261846    -0.12400
C875        C  0.17059397  0.63594221  0.97036938     0.01700
C876        C  0.18893415  0.67816034  0.96370597    -0.00600
C877        C  0.17794400  0.69186968  0.92956286    -0.12300
C878        C  0.15024038  0.66478339  0.90184791     0.01600
H879        H  0.12900428  0.57618716  0.94753593     0.14600
H880        H  0.19210070  0.72418081  0.92375647     0.14600
C881        C  0.14380903  0.68133882  0.86555630     0.36300
C882        C  0.18186343  0.61992806  0.00393123     0.36200
N883        N  0.13899572  0.69459880  0.83633491    -0.44100
N884        N  0.19102245  0.60712667  0.03079002    -0.44100
C885        C  0.32228480  0.80695015  0.67318472    -0.00500
C886        C  0.31119007  0.81598730  0.71005133    -0.12400
C887        C  0.33914987  0.84773924  0.73359084     0.01700
C888        C  0.37987634  0.87220410  0.72023673    -0.00600
C889        C  0.39079768  0.86456793  0.68236687    -0.12300
C890        C  0.36242619  0.83200757  0.65884416     0.01600
H891        H  0.28026053  0.79764543  0.72104864     0.14600
H892        H  0.42193333  0.88278956  0.67196140     0.14600
C893        C  0.37600158  0.82361910  0.62153591     0.36300
C894        C  0.32448400  0.85354900  0.77158405     0.36200
N895        N  0.38696655  0.81688496  0.59167305    -0.44100
N896        N  0.31203419  0.85740233  0.80191647    -0.44100
C897        C  0.19954044  0.67400513  0.68311528    -0.00500
C898        C  0.16071166  0.64674653  0.66780778    -0.12400
C899        C  0.12931251  0.61891294  0.69292186     0.01700
C900        C  0.13627114  0.61848743  0.73424059    -0.00600
C901        C  0.17526325  0.64415152  0.74919851    -0.12300
C902        C  0.20679629  0.67135868  0.72442423     0.01600
H903        H  0.15464937  0.64732942  0.63625045     0.14600
H904        H  0.18110559  0.64304105  0.78078795     0.14600
C905        C  0.24622085  0.69544946  0.74285655     0.36300
C906        C  0.09140317  0.58954264  0.67506980     0.36200
N907        N  0.27761305  0.71462102  0.75797017    -0.44100
N908        N  0.06177892  0.56558154  0.65970776    -0.44100
C909        C  0.73107649  0.20617429  0.15675547     0.79900
N910        N  0.72833140  0.20453434  0.11601421    -0.78400
C911        C  0.75729369  0.23572292  0.09363235     0.82300
N912        N  0.78836602  0.26840567  0.11197268    -0.78400
C913        C  0.79095588  0.27034884  0.15221744     0.82400
N914        N  0.76213380  0.23936583  0.17400473    -0.80100
C915        C  0.72273540  0.20907235  0.48839431     0.79900
N916        N  0.75326776  0.24158599  0.46948695    -0.78400
C917        C  0.78486628  0.27143093  0.48986330     0.82300
N918        N  0.78568787  0.26855302  0.03008482    -0.78400
C919        C  0.75532568  0.23630992  0.04982443     0.82400
N920        N  0.72370583  0.20634714  0.02895130    -0.80100
C921        C  0.75450856  0.48571196  0.15309610     0.79900
N922        N  0.75393599  0.48326499  0.11238883    -0.78400
C923        C  0.72267534  0.48274096  0.09172823     0.82300
N924        N  0.69222099  0.48416373  0.11177194    -0.78400
C925        C  0.69259704  0.48651621  0.15204023     0.82400
N926        N  0.72383924  0.48734206  0.17232370    -0.80100
C927        C  0.74588972  0.47615504  0.48473268     0.79900
N928        N  0.74888571  0.47753704  0.02540010    -0.78400
C929        C  0.72060631  0.48086146  0.04791924     0.82300
N930        N  0.68959253  0.48291246  0.02976172    -0.78400
C931        C  0.68708726  0.48243469  0.48945751     0.82400
N932        N  0.71518606  0.47901177  0.46761122    -0.80100
C933        C  0.96798197  0.22986813  0.15441416     0.79900
N934        N  0.96901239  0.19885255  0.17306723    -0.78400
C935        C  0.97004646  0.16879389  0.15222664     0.82300
N936        N  0.96996447  0.17002084  0.11176472    -0.78400
C937        C  0.96926797  0.20108157  0.09238027     0.82400
N938        N  0.96860438  0.23129881  0.11376015    -0.80100
C939        C  0.97350564  0.23336789  0.48707623     0.79900
N940        N  0.97033711  0.23251346  0.02761313    -0.78400
C941        C  0.97045040  0.20187506  0.04850560     0.82300
N942        N  0.97360168  0.17230543  0.02873150    -0.78400
C943        C  0.97664145  0.17285237  0.48835828     0.82400
N944        N  0.97704531  0.20381812  0.46786861    -0.80100
O945        O  0.89361125  0.01151081  0.28229850    -0.88500
C946        C  0.60406202  0.09320896  0.37822233     1.11500
O947        O  0.94281096  0.47614787  0.32073873    -1.36300
O948        O  0.57424916  0.09496476  0.27033217    -0.90000
O949        O  0.86281861  0.44463619  0.27305902    -0.90700
O950        O  0.94316485  0.43339115  0.23511777    -0.79500
O951        O  0.98398292  0.05334051  0.28437613    -1.01600
C952        C  0.56036807  0.47643664  0.24742962     1.21600
O953        O  0.98359662  0.43243316  0.32041784    -1.36500
Mn954      Mn  0.98385264  0.47486322  0.36468319     1.82100
O955        O  0.52919795  0.47699432  0.23562162    -0.78600
O956        O  0.61267991  0.06669059  0.28212611    -0.88000
C957        C  0.55589897  0.47209686  0.39440824     1.12700
C958        C  0.60510670  0.09102663  0.26313246     1.07400
O959        O  0.93972912  0.43242284  0.40545001    -0.79500
O960        O  0.52739463  0.01704613  0.32107951    -1.33200
O961        O  0.90448961  0.39772380  0.35686643    -0.98700
C962        C  0.98037941  0.35507886  0.26167997     1.06100
Mn963      Mn  0.58454263  0.02012071  0.32409614     1.48600
O964        O  0.94746360  0.34984257  0.27696806    -0.87900
Mn965      Mn  0.88507959  0.42332674  0.31900274     1.49600
O966        O  0.89842354  0.01027268  0.37143534    -0.91800
C967        C  0.98133930  0.04792413  0.24859740     1.19300
C968        C  0.86769609  0.47600203  0.38004887     1.11300
Mn969      Mn  0.98532183  0.47578660  0.27668037     1.81000
O970        O  0.56130489  0.47198190  0.35855072    -0.96900
Mn971      Mn  0.94055283  0.03030819  0.32396184     1.49300
C972        C  0.86754796  0.47932758  0.26484345     1.07900
Mn973      Mn  0.53599734  0.42652809  0.32001735     1.49900
C974        C  0.98118251  0.35471627  0.37785624     1.10800
O975        O  0.90630221  0.39825925  0.28293248    -1.02700
O976        O  0.60638744  0.06173540  0.37100361    -0.92400
C977        C  0.91125288  0.40272880  0.24711445     1.22100
O978        O  0.56494492  0.47506431  0.28375693    -1.03100
O979        O  0.57972171  0.10133669  0.35989890    -0.90500
O980        O  0.51493920  0.38141095  0.36331939    -0.90100
O981        O  0.85932930  0.44313976  0.36242298    -0.90200
Mn982      Mn  0.53224652  0.07457036  0.31821641     1.47900
O983        O  0.52470428  0.47260660  0.40591529    -0.78600
C984        C  0.90874451  0.40118722  0.39277210     1.15100
O985        O  0.98423604  0.01835847  0.23587520    -0.77400
O986        O  0.98594128  0.01888071  0.40594220    -0.77000
Mn987      Mn  0.92892196  0.37596037  0.32068786     1.51100
O988        O  0.51536185  0.38293792  0.27316143    -0.89300
O989        O  0.98868528  0.05569772  0.35792296    -0.96900
O990        O  0.94732329  0.35031814  0.36613532    -0.91900
C991        C  0.98976837  0.05187520  0.39373082     1.12900
C992        C  0.98217059  0.14173628  0.46656526    -0.00500
C993        C  0.50131182  0.15223710  0.42908867    -0.12400
C994        C  0.50577029  0.12421687  0.40584072     0.01700
C995        C  0.99179537  0.08431689  0.42030013    -0.00600
C996        C  0.97524706  0.07462592  0.45891157    -0.12300
C997        C  0.96894598  0.10221609  0.48151248     0.01600
H998        H  0.51241192  0.18254525  0.41732946     0.14600
H999        H  0.96539613  0.04474238  0.47065214     0.14600
C1000       C  0.94578851  0.08776758  0.51808292     0.36300
C1001       C  0.52451554  0.13780710  0.36702279     0.36200
N1002       N  0.92669990  0.07580896  0.04707012    -0.44100
N1003       N  0.53930404  0.14919576  0.33593092    -0.44100
C1004       C  0.97666285  0.26761775  0.46348369    -0.00500
C1005       C  0.51075218  0.28868165  0.43875533    -0.12400
C1006       C  0.51373485  0.31822999  0.41201040     0.01700
C1007       C  0.98141309  0.32676222  0.40892304    -0.00600
C1008       C  0.94775654  0.30640835  0.43479135    -0.12300
C1009       C  0.94533220  0.27728269  0.46213325     0.01600
H1010       H  0.53496529  0.28135994  0.43981880     0.14600
H1011       H  0.92291555  0.31274468  0.43325628     0.14600
C1012       C  0.90944972  0.25620896  0.48682745     0.36300
C1013       C  0.54968283  0.33757755  0.38706764     0.36200
N1014       N  0.88059358  0.23938333  0.50653987    -0.44100
N1015       N  0.57868634  0.35292752  0.36737983    -0.44100
C1016       C  0.97055689  0.13513706  0.17442081    -0.00500
C1017       C  0.95845278  0.12987488  0.21460510    -0.12400
C1018       C  0.96119814  0.10166729  0.23881609     0.01700
C1019       C  0.97483913  0.07596401  0.22264237    -0.00600
C1020       C  0.48413889  0.07904587  0.18171898    -0.12300
C1021       C  0.48375971  0.10930306  0.15792303     0.01600
H1022       H  0.94756190  0.14871850  0.22786465     0.14600
H1023       H  0.49325620  0.05884345  0.16861627     0.14600
C1024       C  0.50041642  0.11512444  0.11807618     0.36300
C1025       C  0.94963187  0.10057402  0.28021087     0.36200
N1026       N  0.51467114  0.12013964  0.08649559    -0.44100
N1027       N  0.94017001  0.10032695  0.31317749    -0.44100
C1028       C  0.97657911  0.32455246  0.23166945    -0.00500
C1029       C  0.94933414  0.28361947  0.24049122    -0.12400
C1030       C  0.94459469  0.25260349  0.21474396     0.01700
C1031       C  0.96765857  0.26209300  0.17910640    -0.00600
C1032       C  0.49324308  0.30299790  0.16904329    -0.12300
C1033       C  0.49772955  0.33416991  0.19485380     0.01600
H1034       H  0.93194686  0.27568943  0.26810665     0.14600
H1035       H  0.51044072  0.31064018  0.14133885     0.14600
C1036       C  0.52195055  0.37525053  0.18113555     0.36300
C1037       C  0.91510944  0.21131813  0.22537540     0.36200
N1038       N  0.54078960  0.40743098  0.16782105    -0.44100
N1039       N  0.89130282  0.17834187  0.23398402    -0.44100
C1040       C  0.83726670  0.47450452  0.40844742    -0.00500
C1041       C  0.80024089  0.46701635  0.39241346    -0.12400
C1042       C  0.76946776  0.46523714  0.41671739     0.01700
C1043       C  0.77614325  0.47302495  0.45846195    -0.00600
C1044       C  0.81287564  0.47875989  0.47468701    -0.12300
C1045       C  0.84294769  0.47860983  0.45012358     0.01600
H1046       H  0.79518939  0.46211883  0.36045664     0.14600
H1047       H  0.81809093  0.98303544  0.00661115     0.14600
C1048       C  0.87739868  0.97917697  0.46870211     0.36300
C1049       C  0.73114541  0.45378564  0.39744562     0.37600
N1050       N  0.90390871  0.97814556  0.48454024    -0.44100
N1051       N  0.70050421  0.44430599  0.38178059    -0.44100
C1052       C  0.65387520  0.48455074  0.46859336    -0.00500
C1053       C  0.61373366  0.46290403  0.48330613    -0.12400
C1054       C  0.58095032  0.45902966  0.46033748     0.01700
C1055       C  0.58837815  0.47673446  0.42197063    -0.00600
C1056       C  0.62867579  0.99962194  0.40831497    -0.12300
C1057       C  0.66120753  0.00454550  0.43145280     0.01600
H1058       H  0.60777564  0.44746490  0.01183837     0.14600
H1059       H  0.63500449  0.01386437  0.37913473     0.14600
C1060       C  0.70189638  0.03082509  0.41634960     0.36300
C1061       C  0.54005316  0.43452391  0.47548243     0.36200
N1062       N  0.73442830  0.05195656  0.40423199    -0.44100
N1063       N  0.50723760  0.41476122  0.48753889    -0.44100
C1064       C  0.78749164  0.48664644  0.17776507    -0.00500
C1065       C  0.79958286  0.51137445  0.21196371    -0.12400
C1066       C  0.82574442  0.50964399  0.24014848     0.01700
C1067       C  0.84092571  0.48277296  0.23448072    -0.00600
C1068       C  0.82961943  0.45851098  0.19985066    -0.12300
C1069       C  0.80328974  0.46039741  0.17144461     0.01600
H1070       H  0.78742662  0.03141986  0.21740972     0.14600
H1071       H  0.84102471  0.43773974  0.19518667     0.14600
C1072       C  0.79118684  0.43349039  0.13744285     0.36300
C1073       C  0.83393346  0.03370596  0.27603951     0.36200
N1074       N  0.78145100  0.41188763  0.11018710    -0.44100
N1075       N  0.84019438  0.05278927  0.30485679    -0.44100
C1076       C  0.59231766  0.47729960  0.22123522    -0.00500
C1077       C  0.59999575  0.49524092  0.18327819    -0.12400
C1078       C  0.63225991  0.49859786  0.15964603     0.01700
C1079       C  0.65778157  0.48428879  0.17442347    -0.00600
C1080       C  0.64969285  0.46614063  0.21213208    -0.12300
C1081       C  0.61759727  0.46226753  0.23536365     0.01600
H1082       H  0.58089125  0.00670529  0.17214465     0.14600
H1083       H  0.66834264  0.45418781  0.22358902     0.14600
C1084       C  0.61172202  0.44218210  0.27352890     0.36300
C1085       C  0.63880427  0.01757479  0.12098069     0.36200
N1086       N  0.60753795  0.42636234  0.30409653    -0.44100
N1087       N  0.64369087  0.03263047  0.08990924    -0.44100
C1088       C  0.81851691  0.30538017  0.46736353    -0.00500
C1089       C  0.82423654  0.29785528  0.42758443    -0.12400
C1090       C  0.85348636  0.32812107  0.40336818     0.01700
C1091       C  0.87895882  0.36775139  0.41887666    -0.00600
C1092       C  0.87453908  0.37507437  0.45924200    -0.12300
C1093       C  0.84426809  0.34456958  0.48339432     0.01600
H1094       H  0.80549501  0.26782270  0.41494337     0.14600
H1095       H  0.89394673  0.40496380  0.47165388     0.14600
C1096       C  0.83902441  0.35515369  0.02355002     0.36300
C1097       C  0.85643828  0.31646912  0.36286610     0.36200
N1098       N  0.83475637  0.36390457  0.05561683    -0.44100
N1099       N  0.85823932  0.30626650  0.33067459    -0.44100
C1100       C  0.63197899  0.12256395  0.40822406    -0.00500
C1101       C  0.64242907  0.10856519  0.44261847    -0.12400
C1102       C  0.67059419  0.13594201  0.47036930     0.01700
C1103       C  0.68893415  0.17816014  0.46370604    -0.00600
C1104       C  0.67794387  0.19186968  0.42956310    -0.12300
C1105       C  0.65024019  0.16478325  0.40184818     0.01600
H1106       H  0.62900488  0.07618741  0.44753570     0.14600
H1107       H  0.69210029  0.22418050  0.42375689     0.14600
C1108       C  0.64380867  0.18133882  0.36555671     0.36300
C1109       C  0.68186394  0.11992791  0.50393095     0.36200
N1110       N  0.63899516  0.19459878  0.33633540    -0.44100
N1111       N  0.69102318  0.10712652  0.53078956    -0.44100
C1112       C  0.82228484  0.30695014  0.17318472    -0.00500
C1113       C  0.81118984  0.31598721  0.21005132    -0.12400
C1114       C  0.83914980  0.34773923  0.23359077     0.01700
C1115       C  0.87987632  0.37220403  0.22023672    -0.00600
C1116       C  0.89079803  0.36456803  0.18236682    -0.12300
C1117       C  0.86242628  0.33200751  0.15884423     0.01600
H1118       H  0.78026064  0.29764558  0.22104844     0.14600
H1119       H  0.92193309  0.38278927  0.17196160     0.14600
C1120       C  0.87600172  0.32361898  0.12153604     0.36300
C1121       C  0.82448383  0.35354899  0.27158395     0.36200
N1122       N  0.88696675  0.31688479  0.09167325    -0.44100
N1123       N  0.81203402  0.35740237  0.30191635    -0.44100
C1124       C  0.69954047  0.17400508  0.18311531    -0.00500
C1125       C  0.66071175  0.14674636  0.16780780    -0.12400
C1126       C  0.62931260  0.11891274  0.19292186     0.01700
C1127       C  0.63627119  0.11848731  0.23424062    -0.00600
C1128       C  0.67526324  0.14415155  0.24919858    -0.12300
C1129       C  0.70679627  0.17135876  0.22442432     0.01600
H1130       H  0.65464949  0.14732917  0.13625041     0.14600
H1131       H  0.68110553  0.14304117  0.28078804     0.14600
C1132       C  0.74622074  0.19544975  0.24285674     0.36300
C1133       C  0.59140331  0.08954238  0.17506979     0.36200
N1134       N  0.77761287  0.21462147  0.25797046    -0.44100
N1135       N  0.56177908  0.06558123  0.15970776    -0.44100
C1136       C  0.73107650  0.20617439  0.65675560     0.79900
N1137       N  0.72833141  0.20453440  0.61601437    -0.78400
C1138       C  0.75729371  0.23572292  0.59363246     0.82300
N1139       N  0.78836606  0.26840567  0.61197275    -0.78400
C1140       C  0.79095597  0.27034888  0.65221750     0.82400
N1141       N  0.76213386  0.23936592  0.67400485    -0.80100
C1142       C  0.72273546  0.20907244  0.98839418     0.79900
N1143       N  0.75326787  0.24158607  0.96948682    -0.78400
C1144       C  0.78486640  0.27143101  0.98986322     0.82300
N1145       N  0.78568780  0.26855300  0.53008492    -0.78400
C1146       C  0.75532565  0.23630988  0.54982454     0.82400
N1147       N  0.72370579  0.20634704  0.52895144    -0.80100
C1148       C  0.75450862  0.48571228  0.65309618     0.79900
N1149       N  0.75393600  0.48326519  0.61238892    -0.78400
C1150       C  0.72267534  0.48274113  0.59172831     0.82300
N1151       N  0.69222102  0.48416398  0.61177200    -0.78400
C1152       C  0.69259712  0.48651658  0.65204028     0.82400
N1153       N  0.72383933  0.48734247  0.67232376    -0.80100
C1154       C  0.74588973  0.47615505  0.98473259     0.79900
N1155       N  0.74888573  0.47753710  0.52540021    -0.78400
C1156       C  0.72060629  0.48086150  0.54791933     0.82300
N1157       N  0.68959246  0.48291239  0.52976180    -0.78400
C1158       C  0.68708734  0.48243484  0.98945742     0.82400
N1159       N  0.71518612  0.47901189  0.96761111    -0.80100
C1160       C  0.96798209  0.22986817  0.65441438     0.79900
N1161       N  0.96901244  0.19885258  0.67306747    -0.78400
C1162       C  0.97004651  0.16879394  0.65222689     0.82300
N1163       N  0.96996457  0.17002086  0.61176497    -0.78400
C1164       C  0.96926812  0.20108160  0.59238051     0.82400
N1165       N  0.96860455  0.23129886  0.61376038    -0.80100
C1166       C  0.97350553  0.23336797  0.98707601     0.79900
N1167       N  0.97033719  0.23251339  0.52761335    -0.78400
C1168       C  0.97045060  0.20187507  0.54850585     0.82300
N1169       N  0.97360205  0.17230550  0.52873181    -0.78400
C1170       C  0.97664105  0.17285233  0.98835797     0.82400
N1171       N  0.97704505  0.20381816  0.96786834    -0.80100
O1172       O  0.89361079  0.01151040  0.78229869    -0.88500
C1173       C  0.60406196  0.09320904  0.87822227     1.11500
O1174       O  0.94281102  0.47614806  0.82073865    -1.36300
O1175       O  0.57424904  0.09496483  0.77033216    -0.90000
O1176       O  0.86281873  0.44463637  0.77305886    -0.90700
O1177       O  0.94316497  0.43339137  0.73511765    -0.79500
O1178       O  0.98398248  0.05334024  0.78437620    -1.01600
C1179       C  0.56036805  0.47643691  0.74742965     1.21600
O1180       O  0.98359674  0.43243341  0.82041774    -1.36500
Mn1181     Mn  0.98385267  0.47486341  0.86468313     1.82100
O1182       O  0.52919790  0.47699452  0.73562161    -0.78600
O1183       O  0.61267981  0.06669070  0.78212612    -0.88000
C1184       C  0.55589895  0.47209708  0.89440826     1.12700
C1185       C  0.60510662  0.09102675  0.76313250     1.07400
O1186       O  0.93972912  0.43242297  0.90544991    -0.79500
O1187       O  0.52739455  0.01704618  0.82107950    -1.33200
O1188       O  0.90448968  0.39772396  0.85686628    -0.98700
C1189       C  0.98037968  0.35507920  0.76167987     1.06100
Mn1190     Mn  0.58454257  0.02012079  0.82409611     1.48600
O1191       O  0.94746384  0.34984287  0.77696796    -0.87900
Mn1192     Mn  0.88507968  0.42332690  0.81900258     1.49600
O1193       O  0.89842316  0.01027224  0.87143546    -0.91800
C1194       C  0.98133886  0.04792391  0.74859749     1.19300
C1195       C  0.86769607  0.47600209  0.88004875     1.11300
Mn1196     Mn  0.98532192  0.47578686  0.77668029     1.81000
O1197       O  0.56130486  0.47198210  0.85855075    -0.96900
Mn1198     Mn  0.94055242  0.03030786  0.82396192     1.49300
C1199       C  0.86754802  0.47932776  0.76484340     1.07900
Mn1200     Mn  0.53599738  0.42652830  0.82001733     1.49900
C1201       C  0.98118266  0.35471652  0.87785606     1.10800
O1202       O  0.90630241  0.39825952  0.78293238    -1.02700
O1203       O  0.60638737  0.06173545  0.87100360    -0.92400
C1204       C  0.91125300  0.40272899  0.74711437     1.22100
O1205       O  0.56494485  0.47506456  0.78375695    -1.03100
O1206       O  0.57972165  0.10133674  0.85989885    -0.90500
O1207       O  0.51493928  0.38141114  0.86331932    -0.90100
O1208       O  0.85932930  0.44313986  0.86242278    -0.90200
Mn1209     Mn  0.53224643  0.07457039  0.81821642     1.47900
O1210       O  0.52470423  0.47260677  0.90591532    -0.78600
C1211       C  0.90874454  0.40118734  0.89277194     1.15100
O1212       O  0.98423568  0.01835829  0.73587523    -0.77400
O1213       O  0.98594103  0.01888057  0.90594222    -0.77000
Mn1214     Mn  0.92892212  0.37596061  0.82068772     1.51100
O1215       O  0.51536200  0.38293815  0.77316134    -0.89300
O1216       O  0.98868488  0.05569743  0.85792294    -0.96900
O1217       O  0.94732342  0.35031841  0.86613518    -0.91900
C1218       C  0.98976802  0.05187503  0.89373078     1.12900
C1219       C  0.98217005  0.14173622  0.96656491    -0.00500
C1220       C  0.50131177  0.15223722  0.92908852    -0.12400
C1221       C  0.50577020  0.12421679  0.90584071     0.01700
C1222       C  0.99179495  0.08431675  0.92030001    -0.00600
C1223       C  0.97524654  0.07462609  0.95891125    -0.12300
C1224       C  0.96894521  0.10221594  0.98151213     0.01600
H1225       H  0.51241163  0.18254488  0.91732946     0.14600
H1226       H  0.96539522  0.04474173  0.97065213     0.14600
C1227       C  0.94578728  0.08776733  0.01808234     0.36300
C1228       C  0.52451553  0.13780720  0.86702272     0.36200
N1229       N  0.92670153  0.07580922  0.54707092    -0.44100
N1230       N  0.53930404  0.14919578  0.83593083    -0.44100
C1231       C  0.97666291  0.26761789  0.96348351    -0.00500
C1232       C  0.51075194  0.28868160  0.93875512    -0.12400
C1233       C  0.51373479  0.31822990  0.91201014     0.01700
C1234       C  0.98141324  0.32676242  0.90892286    -0.00600
C1235       C  0.94775686  0.30640851  0.93479113    -0.12300
C1236       C  0.94533224  0.27728284  0.96213301     0.01600
H1237       H  0.53496529  0.28135972  0.93981859     0.14600
H1238       H  0.92291550  0.31274497  0.93325598     0.14600
C1239       C  0.90944959  0.25620908  0.98682708     0.36300
C1240       C  0.54968258  0.33757724  0.88706717     0.36200
N1241       N  0.88059339  0.23938335  0.00653943    -0.44100
N1242       N  0.57868598  0.35292696  0.86737920    -0.44100
C1243       C  0.97055680  0.13513709  0.67442104    -0.00500
C1244       C  0.95845225  0.12987470  0.71460526    -0.12400
C1245       C  0.96119751  0.10166695  0.73881616     0.01700
C1246       C  0.97483870  0.07596381  0.72264249    -0.00600
C1247       C  0.48413864  0.07904598  0.68171918    -0.12300
C1248       C  0.48375955  0.10930307  0.65792315     0.01600
H1249       H  0.94756127  0.14871807  0.72786467     0.14600
H1250       H  0.49325617  0.05884328  0.66861627     0.14600
C1251       C  0.50041638  0.11512452  0.61807634     0.36300
C1252       C  0.94963104  0.10057345  0.78021086     0.36200
N1253       N  0.51467120  0.12013982  0.58649579    -0.44100
N1254       N  0.94016902  0.10032630  0.81317743    -0.44100
C1255       C  0.97657940  0.32455275  0.73166943    -0.00500
C1256       C  0.94933440  0.28361982  0.74049110    -0.12400
C1257       C  0.94459487  0.25260371  0.71474407     0.01700
C1258       C  0.96765879  0.26209310  0.67910657    -0.00600
C1259       C  0.49324351  0.30299800  0.66904333    -0.12300
C1260       C  0.49772997  0.33417001  0.69485391     0.01600
H1261       H  0.93194693  0.27568980  0.76810675     0.14600
H1262       H  0.51044116  0.31064014  0.64133922     0.14600
C1263       C  0.52195146  0.37525063  0.68113569     0.36300
C1264       C  0.91510958  0.21131840  0.72537563     0.36200
N1265       N  0.54079091  0.40743106  0.66782124    -0.44100
N1266       N  0.89130295  0.17834218  0.73398438    -0.44100
C1267       C  0.83726665  0.47450450  0.90844733    -0.00500
C1268       C  0.80024075  0.46701612  0.89241343    -0.12400
C1269       C  0.76946761  0.46523687  0.91671736     0.01700
C1270       C  0.77614322  0.47302490  0.95846188    -0.00600
C1271       C  0.81287570  0.47876004  0.97468706    -0.12300
C1272       C  0.84294771  0.47860994  0.95012348     0.01600
H1273       H  0.79518918  0.46211844  0.86045660     0.14600
H1274       H  0.81809119  0.98303571  0.50661102     0.14600
C1275       C  0.87739841  0.97917672  0.96870209     0.36300
C1276       C  0.73114513  0.45378504  0.89744567     0.37600
N1277       N  0.90390847  0.97814541  0.98454029    -0.44100
N1278       N  0.70050380  0.44430511  0.88178078    -0.44100
C1279       C  0.65387528  0.48455097  0.96859328    -0.00500
C1280       C  0.61373376  0.46290441  0.98330612    -0.12400
C1281       C  0.58095040  0.45903006  0.96033754     0.01700
C1282       C  0.58837819  0.47673476  0.92197064    -0.00600
C1283       C  0.62867568  0.99962176  0.90831513    -0.12300
C1284       C  0.66120735  0.00454514  0.93145291     0.01600
H1285       H  0.60777552  0.44746446  0.51183829     0.14600
H1286       H  0.63500448  0.01386440  0.87913483     0.14600
C1287       C  0.70189627  0.03082464  0.91634972     0.36300
C1288       C  0.54005327  0.43452448  0.97548264     0.36200
N1289       N  0.73442826  0.05195603  0.90423219    -0.44100
N1290       N  0.50723771  0.41476194  0.98753919    -0.44100
C1291       C  0.78749168  0.48664672  0.67776513    -0.00500
C1292       C  0.79958294  0.51137471  0.71196377    -0.12400
C1293       C  0.82574453  0.50964425  0.74014849     0.01700
C1294       C  0.84092578  0.48277319  0.73448069    -0.00600
C1295       C  0.82961948  0.45851123  0.69985062    -0.12300
C1296       C  0.80328979  0.46039771  0.67144459     0.01600
H1297       H  0.78742587  0.03141943  0.71741030     0.14600
H1298       H  0.84102475  0.43773999  0.69518658     0.14600
C1299       C  0.79118695  0.43349079  0.63744276     0.36300
C1300       C  0.83393262  0.03370511  0.77604010     0.36200
N1301       N  0.78145116  0.41188813  0.61018692    -0.44100
N1302       N  0.84019337  0.05278824  0.80485748    -0.44100
C1303       C  0.59231771  0.47729997  0.72123526    -0.00500
C1304       C  0.59999582  0.49524125  0.68327823    -0.12400
C1305       C  0.63225996  0.49859821  0.65964605     0.01700
C1306       C  0.65778167  0.48428920  0.67442353    -0.00600
C1307       C  0.64969296  0.46614112  0.71213216    -0.12300
C1308       C  0.61759736  0.46226797  0.73536372     0.01600
H1309       H  0.58089132  0.00670600  0.67214469     0.14600
H1310       H  0.66834281  0.45418831  0.72358914     0.14600
C1311       C  0.61172210  0.44218251  0.77352895     0.36300
C1312       C  0.63880467  0.01757567  0.62098090     0.36200
N1313       N  0.60753802  0.42636273  0.80409657    -0.44100
N1314       N  0.64369154  0.03263173  0.58990961    -0.44100
C1315       C  0.81851704  0.30538025  0.96736347    -0.00500
C1316       C  0.82423686  0.29785581  0.92758448    -0.12400
C1317       C  0.85348644  0.32812123  0.90336804     0.01700
C1318       C  0.87895893  0.36775154  0.91887653    -0.00600
C1319       C  0.87453908  0.37507419  0.95924182    -0.12300
C1320       C  0.84426830  0.34456962  0.98339429     0.01600
H1321       H  0.80549483  0.26782246  0.91494310     0.14600
H1322       H  0.89394713  0.40496422  0.97165397     0.14600
C1323       C  0.83902408  0.35515378  0.52355000     0.36300
C1324       C  0.85643834  0.31646928  0.86286594     0.36200
N1325       N  0.83475583  0.36390464  0.55561675    -0.44100
N1326       N  0.85823936  0.30626664  0.83067442    -0.44100
C1327       C  0.63197897  0.12256402  0.90822395    -0.00500
C1328       C  0.64242903  0.10856550  0.94261844    -0.12400
C1329       C  0.67059408  0.13594212  0.97036930     0.01700
C1330       C  0.68893422  0.17816024  0.96370591    -0.00600
C1331       C  0.67794392  0.19186945  0.92956291    -0.12300
C1332       C  0.65024032  0.16478331  0.90184795     0.01600
H1333       H  0.62900451  0.07618729  0.94753583     0.14600
H1334       H  0.69210071  0.22418086  0.92375651     0.14600
C1335       C  0.64380890  0.18133884  0.86555640     0.36300
C1336       C  0.68186366  0.11992805  0.00393107     0.36200
N1337       N  0.63899547  0.19459878  0.83633502    -0.44100
N1338       N  0.69102269  0.10712660  0.03078979    -0.44100
C1339       C  0.82228493  0.30695017  0.67318473    -0.00500
C1340       C  0.81119019  0.31598741  0.71005127    -0.12400
C1341       C  0.83914996  0.34773937  0.73359076     0.01700
C1342       C  0.87987644  0.37220419  0.72023667    -0.00600
C1343       C  0.89079779  0.36456793  0.68236688    -0.12300
C1344       C  0.86242634  0.33200755  0.65884419     0.01600
H1345       H  0.78026060  0.29764556  0.72104857     0.14600
H1346       H  0.92193351  0.38278957  0.67196142     0.14600
C1347       C  0.87600176  0.32361900  0.62153599     0.36300
C1348       C  0.82448404  0.35354920  0.77158391     0.36200
N1349       N  0.88696674  0.31688478  0.59167318    -0.44100
N1350       N  0.81203420  0.35740256  0.80191630    -0.44100
C1351       C  0.69954043  0.17400525  0.68311545    -0.00500
C1352       C  0.66071169  0.14674650  0.66780753    -0.12400
C1353       C  0.62931259  0.11891291  0.69292189     0.01700
C1354       C  0.63627112  0.11848750  0.73424067    -0.00600
C1355       C  0.67526313  0.14415177  0.74919887    -0.12300
C1356       C  0.70679614  0.17135899  0.72442450     0.01600
H1357       H  0.65464960  0.14732925  0.63625081     0.14600
H1358       H  0.68110529  0.14304142  0.78078803     0.14600
C1359       C  0.74622055  0.19545010  0.74285707     0.36300
C1360       C  0.59140328  0.08954261  0.67506981     0.36200
N1361       N  0.77761264  0.21462195  0.75797083    -0.44100
N1362       N  0.56177905  0.06558154  0.65970774    -0.44100
C1363       C  0.73107656  0.70617443  0.15675556     0.79900
N1364       N  0.72833143  0.70453445  0.11601431    -0.78400
C1365       C  0.75729369  0.73572301  0.09363240     0.82300
N1366       N  0.78836604  0.76840578  0.11197268    -0.78400
C1367       C  0.79095595  0.77034896  0.15221744     0.82400
N1368       N  0.76213390  0.73936597  0.17400477    -0.80100
C1369       C  0.72273565  0.70907224  0.48839422     0.79900
N1370       N  0.75326799  0.74158591  0.46948686    -0.78400
C1371       C  0.78486646  0.77143089  0.48986325     0.82300
N1372       N  0.78568779  0.76855305  0.03008485    -0.78400
C1373       C  0.75532560  0.73630997  0.04982448     0.82400
N1374       N  0.72370569  0.70634719  0.02895138    -0.80100
C1375       C  0.75450869  0.98571208  0.15309609     0.79900
N1376       N  0.75393601  0.98326496  0.11238884    -0.78400
C1377       C  0.72267529  0.98274083  0.09172829     0.82300
N1378       N  0.69222098  0.98416362  0.11177204    -0.78400
C1379       C  0.69259713  0.98651626  0.15204032     0.82400
N1380       N  0.72383941  0.98734222  0.17232374    -0.80100
C1381       C  0.74588994  0.97615542  0.48473265     0.79900
N1382       N  0.74888552  0.97753669  0.02540017    -0.78400
C1383       C  0.72060617  0.98086118  0.04791932     0.82300
N1384       N  0.68959234  0.98291213  0.02976183    -0.78400
C1385       C  0.68708745  0.98243505  0.48945752     0.82400
N1386       N  0.71518629  0.97901218  0.46761122    -0.80100
C1387       C  0.96798228  0.72986827  0.15441435     0.79900
N1388       N  0.96901270  0.69885269  0.17306742    -0.78400
C1389       C  0.97004678  0.66879405  0.15222683     0.82300
N1390       N  0.96996480  0.67002097  0.11176490    -0.78400
C1391       C  0.96926827  0.70108168  0.09238046     0.82400
N1392       N  0.96860467  0.73129892  0.11376035    -0.80100
C1393       C  0.97350562  0.73336787  0.48707606     0.79900
N1394       N  0.97033727  0.73251352  0.02761335    -0.78400
C1395       C  0.97045067  0.70187516  0.04850580     0.82300
N1396       N  0.97360197  0.67230555  0.02873168    -0.78400
C1397       C  0.97664137  0.67285233  0.48835809     0.82400
N1398       N  0.97704529  0.70381810  0.46786844    -0.80100
O1399       O  0.89361099  0.51151057  0.28229857    -0.88500
C1400       C  0.60406210  0.59320891  0.37822229     1.11500
O1401       O  0.94281113  0.97614807  0.32073869    -1.36300
O1402       O  0.57424925  0.59496476  0.27033217    -0.90000
O1403       O  0.86281879  0.94463643  0.27305896    -0.90700
O1404       O  0.94316502  0.93339133  0.23511772    -0.79500
O1405       O  0.98398273  0.55334026  0.28437619    -1.01600
C1406       C  0.56036812  0.97643670  0.24742969     1.21600
O1407       O  0.98359674  0.93243333  0.32041782    -1.36500
Mn1408     Mn  0.98385274  0.97486338  0.36468318     1.82100
O1409       O  0.52919800  0.97699436  0.23562165    -0.78600
O1410       O  0.61267998  0.56669056  0.28212610    -0.88000
C1411       C  0.55589904  0.97209698  0.39440828     1.12700
C1412       C  0.60510679  0.59102662  0.26313248     1.07400
O1413       O  0.93972918  0.93242298  0.40544999    -0.79500
O1414       O  0.52739466  0.51704611  0.32107949    -1.33200
O1415       O  0.90448972  0.89772398  0.35686637    -0.98700
C1416       C  0.98037954  0.85507902  0.26168000     1.06100
Mn1417     Mn  0.58454265  0.52012064  0.32409609     1.48600
O1418       O  0.94746373  0.84984278  0.27696802    -0.87900
Mn1419     Mn  0.88507974  0.92332695  0.31900269     1.49600
O1420       O  0.89842336  0.51027243  0.37143540    -0.91800
C1421       C  0.98133912  0.54792395  0.24859748     1.19300
C1422       C  0.86769628  0.97600229  0.38004883     1.11300
Mn1423     Mn  0.98532200  0.97578679  0.27668035     1.81000
O1424       O  0.56130489  0.97198196  0.35855080    -0.96900
Mn1425     Mn  0.94055263  0.53030795  0.32396189     1.49300
C1426       C  0.86754820  0.97932785  0.26484338     1.07900
Mn1427     Mn  0.53599738  0.92652815  0.32001742     1.49900
C1428       C  0.98118258  0.85471637  0.37785615     1.10800
O1429       O  0.90630239  0.89825949  0.28293245    -1.02700
O1430       O  0.60638746  0.56173528  0.37100361    -0.92400
C1431       C  0.91125302  0.90272898  0.24711443     1.22100
O1432       O  0.56494493  0.97506436  0.28375701    -1.03100
O1433       O  0.57972179  0.60133661  0.35989886    -0.90500
O1434       O  0.51493922  0.88141100  0.36331944    -0.90100
O1435       O  0.85932947  0.94314000  0.36242295    -0.90200
Mn1436     Mn  0.53224661  0.57457035  0.31821640     1.47900
O1437       O  0.52470432  0.97260668  0.40591539    -0.78600
C1438       C  0.90874458  0.90118736  0.39277203     1.15100
O1439       O  0.98423585  0.51835828  0.23587522    -0.77400
O1440       O  0.98594116  0.51888052  0.40594223    -0.77000
Mn1441     Mn  0.92892206  0.87596054  0.32068782     1.51100
O1442       O  0.51536194  0.88293797  0.27316149    -0.89300
O1443       O  0.98868509  0.55569749  0.35792299    -0.96900
O1444       O  0.94732330  0.85031824  0.36613528    -0.91900
C1445       C  0.98976820  0.55187498  0.39373087     1.12900
C1446       C  0.98217044  0.64173617  0.46656511    -0.00500
C1447       C  0.50131194  0.65223701  0.42908876    -0.12400
C1448       C  0.50577046  0.62421689  0.40584075     0.01700
C1449       C  0.99179518  0.58431672  0.42030011    -0.00600
C1450       C  0.97524676  0.57462552  0.45891163    -0.12300
C1451       C  0.96894576  0.60221597  0.48151235     0.01600
H1452       H  0.51241203  0.68254533  0.41732944     0.14600
H1453       H  0.96539609  0.54474272  0.47065197     0.14600
C1454       C  0.94578813  0.58776744  0.51808272     0.36300
C1455       C  0.52451568  0.63780714  0.36702281     0.36200
N1456       N  0.92670067  0.57580917  0.04707051    -0.44100
N1457       N  0.53930416  0.64919584  0.33593093    -0.44100
C1458       C  0.97666289  0.76761770  0.46348348    -0.00500
C1459       C  0.51075178  0.78868111  0.43875468    -0.12400
C1460       C  0.51373452  0.81822938  0.41200972     0.01700
C1461       C  0.98141314  0.82676223  0.40892283    -0.00600
C1462       C  0.94775719  0.80640861  0.43479152    -0.12300
C1463       C  0.94533249  0.77728301  0.46213342     0.01600
H1464       H  0.53496488  0.78135900  0.43981780     0.14600
H1465       H  0.92291566  0.81274545  0.43325670     0.14600
C1466       C  0.90945023  0.75620967  0.48682800     0.36300
C1467       C  0.54968204  0.83757634  0.38706631     0.36200
N1468       N  0.88059428  0.73938435  0.50654076    -0.44100
N1469       N  0.57868519  0.85292581  0.36737797    -0.44100
C1470       C  0.97055712  0.63513721  0.17442100    -0.00500
C1471       C  0.95845281  0.62987497  0.21460529    -0.12400
C1472       C  0.96119803  0.60166718  0.23881618     0.01700
C1473       C  0.97483903  0.57596391  0.22264247    -0.00600
C1474       C  0.48413899  0.57904580  0.18171893    -0.12300
C1475       C  0.48375973  0.60930305  0.15792303     0.01600
H1476       H  0.94756200  0.64871845  0.22786476     0.14600
H1477       H  0.49325610  0.55884352  0.16861633     0.14600
C1478       C  0.50041622  0.61512426  0.11807610     0.36300
C1479       C  0.94963160  0.60057371  0.28021089     0.36200
N1480       N  0.51467073  0.62013933  0.08649542    -0.44100
N1481       N  0.94016959  0.60032656  0.31317746    -0.44100
C1482       C  0.97657928  0.82455260  0.23166954    -0.00500
C1483       C  0.94933428  0.78361957  0.24049165    -0.12400
C1484       C  0.94459504  0.75260365  0.21474423     0.01700
C1485       C  0.96765888  0.76209314  0.17910663    -0.00600
C1486       C  0.49324339  0.80299805  0.16904308    -0.12300
C1487       C  0.49772968  0.83416996  0.19485384     0.01600
H1488       H  0.93194736  0.77568968  0.26810665     0.14600
H1489       H  0.51044071  0.81064020  0.14133915     0.14600
C1490       C  0.52195070  0.87525059  0.18113558     0.36300
C1491       C  0.91510993  0.71131830  0.22537580     0.36200
N1492       N  0.54078976  0.90743104  0.16782111    -0.44100
N1493       N  0.89130343  0.67834205  0.23398454    -0.44100
C1494       C  0.83726691  0.97450481  0.40844738    -0.00500
C1495       C  0.80024114  0.96701676  0.39241344    -0.12400
C1496       C  0.76946801  0.96523759  0.41671732     0.01700
C1497       C  0.77614346  0.97302532  0.45846189    -0.00600
C1498       C  0.81287581  0.97876015  0.47468692    -0.12300
C1499       C  0.84294786  0.97861006  0.45012354     0.01600
H1500       H  0.79518965  0.96211928  0.36045653     0.14600
H1501       H  0.81809111  0.48303573  0.00661076     0.14600
C1502       C  0.87739854  0.47917682  0.46870214     0.36300
C1503       C  0.73114572  0.95378622  0.39744553     0.37600
N1504       N  0.90390858  0.47814544  0.48454028    -0.44100
N1505       N  0.70050455  0.94430667  0.38178046    -0.44100
C1506       C  0.65387536  0.98455110  0.46859331    -0.00500
C1507       C  0.61373385  0.96290441  0.48330629    -0.12400
C1508       C  0.58095051  0.95903004  0.46033758     0.01700
C1509       C  0.58837829  0.97673474  0.42197066    -0.00600
C1510       C  0.62867560  0.49962150  0.40831548    -0.12300
C1511       C  0.66120744  0.50454524  0.43145290     0.01600
H1512       H  0.60777541  0.94746452  0.01183798     0.14600
H1513       H  0.63500452  0.51386449  0.37913438     0.14600
C1514       C  0.70189633  0.53082485  0.41634971     0.36300
C1515       C  0.54005336  0.93452435  0.47548274     0.36200
N1516       N  0.73442828  0.55195636  0.40423215    -0.44100
N1517       N  0.50723778  0.91476175  0.48753921    -0.44100
C1518       C  0.78749184  0.98664666  0.17776499    -0.00500
C1519       C  0.79958320  0.01137479  0.21196354    -0.12400
C1520       C  0.82574480  0.00964438  0.24014830     0.01700
C1521       C  0.84092597  0.98277326  0.23448063    -0.00600
C1522       C  0.82961953  0.95851125  0.19985066    -0.12300
C1523       C  0.80328984  0.96039754  0.17144460     0.01600
H1524       H  0.78742621  0.53141943  0.21740995     0.14600
H1525       H  0.84102484  0.93773976  0.19518669     0.14600
C1526       C  0.79118681  0.93349037  0.13744293     0.36300
C1527       C  0.83393294  0.53370545  0.27603979     0.36200
N1528       N  0.78145083  0.91188751  0.11018724    -0.44100
N1529       N  0.84019378  0.55278865  0.30485714    -0.44100
C1530       C  0.59231777  0.97729972  0.22123533    -0.00500
C1531       C  0.59999566  0.99524094  0.18327817    -0.12400
C1532       C  0.63225989  0.99859778  0.15964607     0.01700
C1533       C  0.65778168  0.98428890  0.17442359    -0.00600
C1534       C  0.64969309  0.96614095  0.21213228    -0.12300
C1535       C  0.61759751  0.96226784  0.23536385     0.01600
H1536       H  0.58089120  0.50670553  0.17214462     0.14600
H1537       H  0.66834300  0.95418826  0.22358930     0.14600
C1538       C  0.61172241  0.94218258  0.27352920     0.36300
C1539       C  0.63880446  0.51757516  0.12098079     0.36200
N1540       N  0.60753843  0.92636297  0.30409691    -0.44100
N1541       N  0.64369126  0.53263109  0.08990944    -0.44100
C1542       C  0.81851706  0.80538018  0.46736350    -0.00500
C1543       C  0.82423677  0.79785564  0.42758442    -0.12400
C1544       C  0.85348642  0.82812125  0.40336807     0.01700
C1545       C  0.87895892  0.86775153  0.41887660    -0.00600
C1546       C  0.87453912  0.87507421  0.45924192    -0.12300
C1547       C  0.84426831  0.84456956  0.48339435     0.01600
H1548       H  0.80549492  0.76782261  0.41494312     0.14600
H1549       H  0.89394709  0.90496410  0.47165403     0.14600
C1550       C  0.83902414  0.85515382  0.02354996     0.36300
C1551       C  0.85643826  0.81646936  0.36286594     0.36200
N1552       N  0.83475590  0.86390466  0.05561673    -0.44100
N1553       N  0.85823923  0.80626676  0.33067440    -0.44100
C1554       C  0.63197915  0.62256391  0.40822397    -0.00500
C1555       C  0.64242945  0.60856555  0.44261831    -0.12400
C1556       C  0.67059446  0.63594196  0.47036920     0.01700
C1557       C  0.68893443  0.67816009  0.46370595    -0.00600
C1558       C  0.67794405  0.69186947  0.42956303    -0.12300
C1559       C  0.65024037  0.66478320  0.40184810     0.01600
H1560       H  0.62900487  0.57618694  0.44753566     0.14600
H1561       H  0.69210060  0.72418060  0.42375676     0.14600
C1562       C  0.64380880  0.68133869  0.36555666     0.36300
C1563       C  0.68186423  0.61992780  0.50393082     0.36200
N1564       N  0.63899531  0.69459872  0.33633539    -0.44100
N1565       N  0.69102349  0.60712639  0.53078941    -0.44100
C1566       C  0.82228488  0.80695025  0.17318470    -0.00500
C1567       C  0.81118990  0.81598736  0.21005131    -0.12400
C1568       C  0.83914990  0.84773942  0.23359074     0.01700
C1569       C  0.87987640  0.87220420  0.22023670    -0.00600
C1570       C  0.89079781  0.86456799  0.18236689    -0.12300
C1571       C  0.86242632  0.83200761  0.15884419     0.01600
H1572       H  0.78026074  0.79764579  0.22104844     0.14600
H1573       H  0.92193345  0.88278955  0.17196149     0.14600
C1574       C  0.87600180  0.82361909  0.12153599     0.36300
C1575       C  0.82448401  0.85354928  0.27158387     0.36200
N1576       N  0.88696676  0.81688483  0.09167318    -0.44100
N1577       N  0.81203416  0.85740264  0.30191624    -0.44100
C1578       C  0.69954055  0.67400522  0.18311545    -0.00500
C1579       C  0.66071189  0.64674637  0.16780783    -0.12400
C1580       C  0.62931274  0.61891273  0.19292191     0.01700
C1581       C  0.63627129  0.61848734  0.23424068    -0.00600
C1582       C  0.67526329  0.64415170  0.24919882    -0.12300
C1583       C  0.70679628  0.67135899  0.22442449     0.01600
H1584       H  0.65464969  0.64732914  0.13625052     0.14600
H1585       H  0.68110548  0.64304139  0.28078808     0.14600
C1586       C  0.74622065  0.69545022  0.24285701     0.36300
C1587       C  0.59140343  0.58954240  0.17506980     0.36200
N1588       N  0.77761268  0.71462216  0.25797082    -0.44100
N1589       N  0.56177917  0.56558128  0.15970780    -0.44100
C1590       C  0.73107649  0.70617422  0.65675552     0.79900
N1591       N  0.72833143  0.70453424  0.61601426    -0.78400
C1592       C  0.75729377  0.73572278  0.59363241     0.82300
N1593       N  0.78836610  0.76840552  0.61197275    -0.78400
C1594       C  0.79095592  0.77034871  0.65221752     0.82400
N1595       N  0.76213380  0.73936574  0.67400479    -0.80100
C1596       C  0.72273529  0.70907252  0.98839425     0.79900
N1597       N  0.75326769  0.74158612  0.96948689    -0.78400
C1598       C  0.78486624  0.77143101  0.98986324     0.82300
N1599       N  0.78568793  0.76855290  0.53008487    -0.78400
C1600       C  0.75532578  0.73630977  0.54982447     0.82400
N1601       N  0.72370598  0.70634693  0.52895134    -0.80100
C1602       C  0.75450853  0.98571213  0.65309618     0.79900
N1603       N  0.75393604  0.98326520  0.61238892    -0.78400
C1604       C  0.72267545  0.98274123  0.59172829     0.82300
N1605       N  0.69222108  0.98416400  0.61177197    -0.78400
C1606       C  0.69259706  0.98651647  0.65204025     0.82400
N1607       N  0.72383921  0.98734226  0.67232375    -0.80100
C1608       C  0.74588944  0.97615461  0.98473264     0.79900
N1609       N  0.74888592  0.97753738  0.52540019    -0.78400
C1610       C  0.72060647  0.98086174  0.54791932     0.82300
N1611       N  0.68959264  0.98291267  0.52976181    -0.78400
C1612       C  0.68708706  0.98243440  0.98945755     0.82400
N1613       N  0.71518581  0.97901140  0.96761122    -0.80100
C1614       C  0.96798182  0.72986814  0.65441416     0.79900
N1615       N  0.96901215  0.69885254  0.67306730    -0.78400
C1616       C  0.97004627  0.66879390  0.65222674     0.82300
N1617       N  0.96996440  0.67002083  0.61176482    -0.78400
C1618       C  0.96926795  0.70108156  0.59238033     0.82400
N1619       N  0.96860433  0.73129881  0.61376017    -0.80100
C1620       C  0.97350561  0.73336801  0.98707622     0.79900
N1621       N  0.97033716  0.73251338  0.52761317    -0.78400
C1622       C  0.97045051  0.70187503  0.54850567     0.82300
N1623       N  0.97360192  0.67230544  0.52873162    -0.78400
C1624       C  0.97664127  0.67285244  0.98835815     0.82400
N1625       N  0.97704517  0.70381822  0.96786853    -0.80100
O1626       O  0.89361100  0.51151072  0.78229858    -0.88500
C1627       C  0.60406183  0.59320910  0.87822229     1.11500
O1628       O  0.94281086  0.97614785  0.82073871    -1.36300
O1629       O  0.57424890  0.59496482  0.77033213    -0.90000
O1630       O  0.86281852  0.94463606  0.77305894    -0.90700
O1631       O  0.94316484  0.93339118  0.73511772    -0.79500
O1632       O  0.98398272  0.55334049  0.78437616    -1.01600
C1633       C  0.56036805  0.97643681  0.74742962     1.21600
O1634       O  0.98359665  0.93243327  0.82041778    -1.36500
Mn1635     Mn  0.98385259  0.97486328  0.86468315     1.82100
O1636       O  0.52919791  0.97699446  0.73562161    -0.78600
O1637       O  0.61267975  0.56669078  0.78212616    -0.88000
C1638       C  0.55589898  0.97209700  0.89440821     1.12700
C1639       C  0.60510648  0.59102675  0.76313245     1.07400
O1640       O  0.93972911  0.93242287  0.90544997    -0.79500
O1641       O  0.52739448  0.51704621  0.82107950    -1.33200
O1642       O  0.90448963  0.89772381  0.85686638    -0.98700
C1643       C  0.98037953  0.85507903  0.76167988     1.06100
Mn1644     Mn  0.58454251  0.52012086  0.82409613     1.48600
O1645       O  0.94746375  0.84984274  0.77696801    -0.87900
Mn1646     Mn  0.88507953  0.92332667  0.81900268     1.49600
O1647       O  0.89842337  0.51027250  0.87143538    -0.91800
C1648       C  0.98133908  0.54792415  0.74859745     1.19300
C1649       C  0.86769589  0.97600182  0.88004886     1.11300
Mn1650     Mn  0.98532177  0.97578668  0.77668034     1.81000
O1651       O  0.56130487  0.97198203  0.85855072    -0.96900
Mn1652     Mn  0.94055264  0.53030811  0.82396186     1.49300
C1653       C  0.86754779  0.97932747  0.76484352     1.07900
Mn1654     Mn  0.53599735  0.92652823  0.82001731     1.49900
C1655       C  0.98118267  0.85471643  0.87785615     1.10800
O1656       O  0.90630226  0.89825929  0.78293245    -1.02700
O1657       O  0.60638724  0.56173550  0.87100363    -0.92400
C1658       C  0.91125291  0.90272880  0.74711442     1.22100
O1659       O  0.56494490  0.97506448  0.78375692    -1.03100
O1660       O  0.57972153  0.60133679  0.85989882    -0.90500
O1661       O  0.51493926  0.88141109  0.86331935    -0.90100
O1662       O  0.85932914  0.94313958  0.86242290    -0.90200
Mn1663     Mn  0.53224630  0.57457039  0.81821638     1.47900
O1664       O  0.52470426  0.97260669  0.90591530    -0.78600
C1665       C  0.90874453  0.90118723  0.89277205     1.15100
O1666       O  0.98423587  0.51835851  0.73587519    -0.77400
O1667       O  0.98594115  0.51888072  0.90594219    -0.77000
Mn1668     Mn  0.92892205  0.87596046  0.82068781     1.51100
O1669       O  0.51536193  0.88293807  0.77316135    -0.89300
O1670       O  0.98868511  0.55569766  0.85792293    -0.96900
O1671       O  0.94732342  0.85031828  0.86613526    -0.91900
C1672       C  0.98976822  0.55187521  0.89373078     1.12900
C1673       C  0.98217031  0.64173634  0.96656507    -0.00500
C1674       C  0.50131148  0.65223678  0.92908870    -0.12400
C1675       C  0.50577009  0.62421685  0.90584063     0.01700
C1676       C  0.99179516  0.58431691  0.92030005    -0.00600
C1677       C  0.97524682  0.57462618  0.95891134    -0.12300
C1678       C  0.96894557  0.60221609  0.98151228     0.01600
H1679       H  0.51241188  0.68254558  0.91732927     0.14600
H1680       H  0.96539561  0.54474198  0.97065216     0.14600
C1681       C  0.94578786  0.58776751  0.01808261     0.36300
C1682       C  0.52451538  0.63780709  0.86702271     0.36200
N1683       N  0.92670102  0.57580913  0.54707065    -0.44100
N1684       N  0.53930391  0.64919580  0.83593085    -0.44100
C1685       C  0.97666288  0.76761789  0.96348372    -0.00500
C1686       C  0.51075210  0.78868216  0.93875569    -0.12400
C1687       C  0.51373503  0.81823044  0.91201072     0.01700
C1688       C  0.98141323  0.82676240  0.90892301    -0.00600
C1689       C  0.94775665  0.80640817  0.93479100    -0.12300
C1690       C  0.94533202  0.77728251  0.96213290     0.01600
H1691       H  0.53496580  0.78136054  0.93981947     0.14600
H1692       H  0.92291509  0.81274436  0.93325561     0.14600
C1693       C  0.90944921  0.75620839  0.98682663     0.36300
C1694       C  0.54968328  0.83757831  0.88706831     0.36200
N1695       N  0.88059281  0.73938241  0.00653868    -0.44100
N1696       N  0.57868698  0.85292853  0.86738077    -0.44100
C1697       C  0.97055668  0.63513711  0.67442092    -0.00500
C1698       C  0.95845236  0.62987473  0.71460513    -0.12400
C1699       C  0.96119772  0.60166717  0.73881614     0.01700
C1700       C  0.97483884  0.57596398  0.72264244    -0.00600
C1701       C  0.48413861  0.57904601  0.68171917    -0.12300
C1702       C  0.48375960  0.60930317  0.65792318     0.01600
H1703       H  0.94756130  0.64871832  0.72786469     0.14600
H1704       H  0.49325616  0.55884338  0.66861631     0.14600
C1705       C  0.50041673  0.61512479  0.61807646     0.36300
C1706       C  0.94963142  0.60057380  0.78021089     0.36200
N1707       N  0.51467180  0.62014030  0.58649600    -0.44100
N1708       N  0.94016953  0.60032673  0.81317750    -0.44100
C1709       C  0.97657920  0.82455260  0.73166936    -0.00500
C1710       C  0.94933390  0.78361961  0.74049123    -0.12400
C1711       C  0.94459450  0.75260365  0.71474383     0.01700
C1712       C  0.96765851  0.76209308  0.67910636    -0.00600
C1713       C  0.49324340  0.80299794  0.66904326    -0.12300
C1714       C  0.49772988  0.83416995  0.69485389     0.01600
H1715       H  0.93194675  0.77568972  0.76810625     0.14600
H1716       H  0.51044102  0.81064006  0.64133921     0.14600
C1717       C  0.52195137  0.87525057  0.68113569     0.36300
C1718       C  0.91510909  0.71131832  0.72537526     0.36200
N1719       N  0.54079083  0.90743098  0.66782122    -0.44100
N1720       N  0.89130238  0.67834209  0.73398385    -0.44100
C1721       C  0.83726647  0.97450418  0.90844739    -0.00500
C1722       C  0.80024053  0.96701574  0.89241363    -0.12400
C1723       C  0.76946734  0.96523641  0.91671743     0.01700
C1724       C  0.77614294  0.97302446  0.95846193    -0.00600
C1725       C  0.81287541  0.97875963  0.97468676    -0.12300
C1726       C  0.84294753  0.97860965  0.95012352     0.01600
H1727       H  0.79518892  0.96211801  0.86045653     0.14600
H1728       H  0.81809102  0.48303549  0.50661101     0.14600
C1729       C  0.87739856  0.47917695  0.96870200     0.36300
C1730       C  0.73114485  0.95378454  0.89744582     0.37600
N1731       N  0.90390860  0.47814557  0.98454015    -0.44100
N1732       N  0.70050353  0.94430457  0.88178090    -0.44100
C1733       C  0.65387504  0.98455055  0.96859335    -0.00500
C1734       C  0.61373346  0.96290378  0.98330642    -0.12400
C1735       C  0.58095026  0.95902969  0.96033749     0.01700
C1736       C  0.58837816  0.97673459  0.92197065    -0.00600
C1737       C  0.62867564  0.49962175  0.90831532    -0.12300
C1738       C  0.66120747  0.50454538  0.93145278     0.01600
H1739       H  0.60777583  0.94746507  0.51183829     0.14600
H1740       H  0.63500450  0.51386461  0.87913439     0.14600
C1741       C  0.70189634  0.53082483  0.91634950     0.36300
C1742       C  0.54005307  0.93452398  0.97548245     0.36200
N1743       N  0.73442828  0.55195622  0.90423184    -0.44100
N1744       N  0.50723746  0.91476134  0.98753882    -0.44100
C1745       C  0.78749150  0.98664653  0.67776518    -0.00500
C1746       C  0.79958268  0.01137425  0.71196393    -0.12400
C1747       C  0.82574416  0.00964383  0.74014872     0.01700
C1748       C  0.84092549  0.98277288  0.73448086    -0.00600
C1749       C  0.82961917  0.95851133  0.69985074    -0.12300
C1750       C  0.80328967  0.96039758  0.67144459     0.01600
H1751       H  0.78742630  0.53141973  0.71741003     0.14600
H1752       H  0.84102484  0.93773963  0.69518653     0.14600
C1753       C  0.79118695  0.93349075  0.63744268     0.36300
C1754       C  0.83393315  0.53370578  0.77603976     0.36200
N1755       N  0.78145123  0.91188816  0.61018677    -0.44100
N1756       N  0.84019409  0.55278904  0.80485708    -0.44100
C1757       C  0.59231762  0.97729980  0.72123519    -0.00500
C1758       C  0.59999582  0.99524126  0.68327823    -0.12400
C1759       C  0.63225998  0.99859822  0.65964607     0.01700
C1760       C  0.65778156  0.98428903  0.67442345    -0.00600
C1761       C  0.64969265  0.96614074  0.71213195    -0.12300
C1762       C  0.61759713  0.96226760  0.73536356     0.01600
H1763       H  0.58089118  0.50670585  0.67214460     0.14600
H1764       H  0.66834249  0.95418771  0.72358891     0.14600
C1765       C  0.61172177  0.94218200  0.77352874     0.36300
C1766       C  0.63880444  0.51757538  0.62098075     0.36200
N1767       N  0.60753762  0.92636209  0.80409630    -0.44100
N1768       N  0.64369116  0.53263120  0.58990935    -0.44100
C1769       C  0.81851692  0.80538018  0.96736348    -0.00500
C1770       C  0.82423657  0.79785526  0.92758439    -0.12400
C1771       C  0.85348644  0.82812105  0.90336816     0.01700
C1772       C  0.87895887  0.86775139  0.91887662    -0.00600
C1773       C  0.87453905  0.87507428  0.95924190    -0.12300
C1774       C  0.84426811  0.84456960  0.98339427     0.01600
H1775       H  0.80549507  0.76782270  0.91494336     0.14600
H1776       H  0.89394684  0.90496394  0.97165386     0.14600
C1777       C  0.83902440  0.85515363  0.52355009     0.36300
C1778       C  0.85643848  0.81646909  0.86286613     0.36200
N1779       N  0.83475627  0.86390444  0.55561691    -0.44100
N1780       N  0.85823959  0.80626643  0.83067466    -0.44100
C1781       C  0.63197882  0.62256412  0.90822399    -0.00500
C1782       C  0.64242882  0.60856549  0.94261849    -0.12400
C1783       C  0.67059389  0.63594221  0.97036933     0.01700
C1784       C  0.68893402  0.67816035  0.96370596    -0.00600
C1785       C  0.67794386  0.69186986  0.92956291    -0.12300
C1786       C  0.65024015  0.66478342  0.90184801     0.01600
H1787       H  0.62900442  0.57618750  0.94753583     0.14600
H1788       H  0.69210039  0.72418068  0.92375661     0.14600
C1789       C  0.64380871  0.68133892  0.86555647     0.36300
C1790       C  0.68186343  0.61992808  0.00393113     0.36200
N1791       N  0.63899526  0.69459886  0.83633511    -0.44100
N1792       N  0.69102251  0.60712670  0.03078988    -0.44100
C1793       C  0.82228488  0.80694999  0.67318480    -0.00500
C1794       C  0.81118983  0.81598699  0.71005144    -0.12400
C1795       C  0.83914985  0.84773909  0.73359083     0.01700
C1796       C  0.87987635  0.87220394  0.72023673    -0.00600
C1797       C  0.89079809  0.86456795  0.68236683    -0.12300
C1798       C  0.86242632  0.83200738  0.65884429     0.01600
H1799       H  0.78026080  0.79764543  0.72104855     0.14600
H1800       H  0.92193307  0.88278917  0.67196161     0.14600
C1801       C  0.87600177  0.82361884  0.62153610     0.36300
C1802       C  0.82448390  0.85354884  0.77158403     0.36200
N1803       N  0.88696677  0.81688462  0.59167331    -0.44100
N1804       N  0.81203412  0.85740221  0.80191644    -0.44100
C1805       C  0.69954041  0.67400507  0.68311530    -0.00500
C1806       C  0.66071164  0.64674647  0.66780789    -0.12400
C1807       C  0.62931241  0.61891291  0.69292186     0.01700
C1808       C  0.63627098  0.61848742  0.73424060    -0.00600
C1809       C  0.67526303  0.64415155  0.74919828    -0.12300
C1810       C  0.70679619  0.67135868  0.72442428     0.01600
H1811       H  0.65464935  0.64732933  0.63625034     0.14600
H1812       H  0.68110541  0.64304109  0.78078827     0.14600
C1813       C  0.74622072  0.69544946  0.74285669     0.36300
C1814       C  0.59140312  0.58954262  0.67506982     0.36200
N1815       N  0.77761290  0.71462102  0.75797037    -0.44100
N1816       N  0.56177892  0.56558154  0.65970771    -0.44100
loop_ 
_geom_bond_atom_site_label_1 
_geom_bond_atom_site_label_2 
_geom_bond_distance 
_geom_bond_site_symmetry_2 
_ccdc_geom_bond_type 
C1            N2   1.367       .  A
C1            N6   1.353       .  A
C1          C216   1.497       .  S
N2            C3   1.368       .  A
C3            N4   1.360       .  A
C3           C11   1.469       .  S
N4            C5   1.350       .  A
C5            N6   1.351       .  A
C5          C204   1.480       .  S
C7            N8   1.356       .  A
C7          N239   1.363       .  A
C7          C195   1.485       .  S
N8            C9   1.354       .  A
C9          N237   1.352       .  A
C9          C180   1.488       .  S
N10          C11   1.361       .  A
N10         C236   1.352   1_554  A
C11          N12   1.364       .  A
N12         C234   1.363   1_554  A
C13          N14   1.365       .  A
C13          N18   1.356       .  A
C13         C156   1.487       .  S
N14          C15   1.366       .  A
C15          N16   1.358       .  A
C15          C21   1.468       .  S
N16          C17   1.350       .  A
C17          N18   1.354       .  A
C17         C171   1.481       .  S
C19          N24   1.352       .  A
C19         N247   1.365       .  A
C19         C135   1.494       .  S
N20          C21   1.365       .  A
N20         C246   1.365   1_554  A
C21          N22   1.362       .  A
N22         C250   1.352   1_554  A
C23          N24   1.349       .  A
C23         N249   1.352       .  A
C23         C144   1.480       .  S
C25          N26   1.354       .  A
C25          N30   1.361       .  A
C25         C123   1.482       .  S
N26          C27   1.355       .  A
C27          N28   1.355       .  A
C27         C108   1.490       .  S
N28          C29   1.361       .  A
C29          N30   1.364       .  A
C29          C33   1.469       .  S
C31          N36   1.357       .  A
C31         N259   1.360       .  A
C31          C96   1.478       .  S
N32          C33   1.362       .  A
N32         C258   1.360   1_554  A
C33          N34   1.360       .  A
N34         C262   1.355   1_554  A
C35          N36   1.358       .  A
C35         N261   1.355       .  A
C35          C84   1.490       .  S
O37         Mn63   2.089       .  S
O37         C518   1.268   1_545  A
C38         C192   1.482       .  S
C38          O71   1.271       .  A
C38          O68   1.266       .  A
O39         Mn46   2.164       .  S
O39         Mn57   2.107       .  S
O39         Mn61   2.186       .  S
O39        Mn517   2.107       .  S
O40         Mn74   2.112       .  S
O40          C50   1.274       .  A
O41         Mn57   2.105       .  S
O41          C64   1.270       .  A
O42         Mn61   2.126       .  S
O42          C69   1.255       .  A
O43         Mn63   1.945       .  S
O43        Mn982   1.954       .  S
O43          C59   1.210       .  S
C44         C168   1.480       .  S
C44          O47   1.258       .  A
C44          O70   1.233       .  A
O45         Mn46   2.185       .  S
O45         Mn79   2.112       .  S
O45         Mn61   2.184       .  S
O45        Mn973   2.109       .  S
Mn46         O51   2.136       .  S
Mn46        O983   2.112       .  S
Mn46        O532   2.139       .  S
Mn46       O1414   2.185       .  S
O47        Mn969   2.137   1_455  S
O48         Mn55   2.088       .  S
O48          C50   1.270       .  A
C49         C147   1.480       .  S
C49          O75   1.252       .  A
C49          O62   1.217       .  S
C50         C219   1.478       .  S
O51          C76   1.256       .  A
O52         Mn55   2.114       .  S
O52         Mn74   2.105       .  S
O52       Mn1408   2.185   1_445  S
O52       Mn1423   2.173   1_445  S
O53         Mn57   1.956       .  S
O53         Mn79   1.940       .  S
O53          C76   1.211       .  S
C54         C120   1.485       .  S
C54          O56   1.268       .  A
C54         O988   1.276       .  A
Mn55         O68   2.084       .  S
Mn55        O524   2.009   1_545  S
Mn55        O516   1.962   1_545  S
O56         Mn79   2.075       .  S
Mn57         O73   2.087       .  S
Mn57         O67   1.942       .  S
O58         Mn63   2.104       .  S
O58         C514   1.273   1_545  A
C59         C111   1.491       .  S
C59          O77   1.257       .  A
C60         C132   1.472       .  S
C60          O73   1.270       .  A
C60         O512   1.273       .  A
Mn61        O955   2.137       .  S
Mn61        O531   2.137       .  S
Mn61       O1414   2.173       .  S
O62         Mn65   1.978       .  S
O62        Mn509   1.962       .  S
Mn63        O493   2.107   1_545  S
Mn63         O81   1.951       .  S
C64         C159   1.486       .  S
C64         O491   1.268       .  A
Mn65         O72   2.077       .  S
Mn65         O80   2.126       .  S
Mn65        O953   2.109   1_455  S
Mn65         O70   2.015       .  S
C66          C99   1.492       .  S
C66          O82   1.273       .  A
C66         O980   1.267       .  A
O67         Mn79   1.947       .  S
O67          C69   1.212       .  S
C69         C207   1.482       .  S
O70        Mn509   2.009       .  S
O71         Mn74   2.099       .  S
O72         C974   1.267   1_455  A
Mn74        O951   1.954   1_455  S
Mn74        O989   1.953   1_455  S
O75        Mn954   2.112   1_455  S
C76         C183   1.489       .  S
O77        Mn515   2.137   1_545  S
O78        Mn500   2.139   1_545  S
O78          C83   1.258       .  A
Mn79         O82   2.109       .  S
O80         C962   1.276   1_455  A
O81        Mn982   1.953       .  S
O81          C83   1.211       .  S
C83          C87   1.490       .  S
C84          C89   1.418       .  A
C84         C993   1.402       .  A
C85          C86   1.395       .  A
C85         C992   1.402   1_455  A
C85          H90   1.085       .  S
C86         C995   1.420   1_455  A
C86          C93   1.445       .  S
C87          C88   1.402       .  A
C87         C994   1.420       .  A
C88          C89   1.406       .  A
C88          H91   1.078       .  S
C89          C92   1.444       .  S
C92         N321   1.157       .  T
C93          N95   1.157       .  T
N94         C319   1.157       .  T
C96         C101   1.410       .  A
C96        C1005   1.399       .  A
C97          C98   1.398       .  A
C97        C1004   1.399   1_455  A
C97         H102   1.086       .  S
C98        C1007   1.421   1_455  A
C98         C105   1.445       .  S
C99         C100   1.409       .  A
C99        C1006   1.421       .  A
C100        C101   1.405       .  A
C100        H103   1.084       .  S
C101        C104   1.443       .  S
C104        N106   1.157       .  T
C105        N107   1.157       .  T
C108        C109   1.401       .  A
C108       C1021   1.418       .  A
C109        C110   1.391       .  A
C109        H114   1.084       .  S
C110        C111   1.421       .  A
C110        C117   1.446       .  S
C111       C1020   1.403       .  A
C112        C113   1.407       .  A
C112       C1019   1.403       .  A
C112        H115   1.080       .  S
C113       C1016   1.418       .  A
C113        C116   1.443   1_655  S
C116        N118   1.157       .  T
C117        N119   1.157       .  T
C120        C121   1.404       .  A
C120       C1033   1.413       .  A
C121        C122   1.397       .  A
C121        H126   1.085       .  S
C122        C123   1.413       .  A
C122        C129   1.445       .  S
C123       C1032   1.402       .  A
C124        C125   1.406       .  A
C124       C1031   1.402       .  A
C124        H127   1.085   1_655  S
C125       C1028   1.413       .  A
C125        C128   1.436   1_655  S
C128        N130   1.155       .  T
C129        N131   1.157       .  T
C132        C133   1.395       .  A
C132        C137   1.408       .  A
C133        C134   1.394       .  A
C133        H138   1.086       .  S
C134        C135   1.424       .  A
C134        C141   1.446       .  S
C135        C136   1.409       .  A
C136        C137   1.406       .  A
C136        H820   1.084       .  S
C137        C594   1.440       .  S
H139        C817   1.084   1_554  S
C140        C591   1.440       .  S
C140        N142   1.156       .  T
C141        N143   1.158       .  T
C144        C145   1.408       .  A
C144        C603   1.411       .  A
C145        C146   1.408       .  A
C145        H377   1.084       .  S
C146        C147   1.412       .  A
C146        C153   1.443       .  S
C147        C602   1.403       .  A
C148        C149   1.390   1_565  A
C148        C601   1.403       .  A
C148        H151   1.084   1_565  S
C149        C598   1.411   1_545  A
C149        C152   1.446       .  S
H150        C372   1.084   1_554  S
C152        N154   1.157       .  T
C153        N155   1.157       .  T
C156        C157   1.405       .  A
C156        C161   1.413       .  A
C157        C158   1.397       .  A
C157        H616   1.085       .  S
C158        C159   1.414       .  A
C158        C619   1.446       .  S
C159        C160   1.408       .  A
C160        C161   1.409       .  A
C160        H163   1.085       .  S
C161        C164   1.443       .  S
H162        C611   1.085       .  S
C164        N166   1.157       .  T
C165        C612   1.446       .  S
C165        N167   1.157       .  T
C168        C169   1.402       .  A
C168        C173   1.422       .  A
C169        C170   1.406       .  A
C169        H628   1.083       .  S
C170        C171   1.418       .  A
C170        C631   1.442       .  S
C171        C172   1.397       .  A
C172        C173   1.387       .  A
C172        H175   1.086       .  S
C173        C176   1.448       .  S
H174        C623   1.083   1_545  S
C176        N178   1.157       .  T
C177        C624   1.442   1_545  S
C177        N179   1.157       .  T
C180        C181   1.400       .  A
C180        C185   1.417       .  A
C181        C182   1.391       .  A
C181        H186   1.085       .  S
C182        C183   1.421       .  A
C182        C189   1.446       .  S
C183        C184   1.405       .  A
C184        C185   1.408       .  A
C184        H187   1.082       .  S
C185        C415   1.443       .  S
C188        C412   1.443   1_554  S
C188        N190   1.157       .  T
C189        N191   1.158       .  T
C192        C193   1.408       .  A
C192        C197   1.412       .  A
C193        C194   1.407       .  A
C193        H198   1.085       .  S
C194        C195   1.413       .  A
C194        C201   1.443       .  S
C195        C196   1.405       .  A
C196        C197   1.395       .  A
C196        H199   1.085       .  S
C197        C200   1.446       .  S
C200        N202   1.157       .  T
C201        N203   1.157       .  T
C204        C205   1.399       .  A
C204        C209   1.415       .  A
C205        C206   1.388       .  A
C205        H210   1.086       .  S
C206        C207   1.418       .  A
C206        C213   1.446       .  S
C207        C208   1.406       .  A
C208        C209   1.408       .  A
C208        H211   1.085       .  S
C209        C212   1.443       .  S
C212        N214   1.157       .  T
C213        N215   1.158       .  T
C216        C217   1.408       .  A
C216        C221   1.424       .  A
C217        C218   1.408       .  A
C217        H222   1.084       .  S
C218        C219   1.410       .  A
C218        C225   1.439       .  S
C219        C220   1.397       .  A
C220        C221   1.396       .  A
C220        H223   1.086       .  S
C221        C224   1.446       .  S
C224        N226   1.158       .  T
C225        N227   1.156       .  T
C228        N229   1.367       .  A
C228        N233   1.353       .  A
C228        C443   1.497       .  S
N229        C230   1.368       .  A
C230        N231   1.360       .  A
C230        C238   1.469       .  S
N231        C232   1.350       .  A
C232        N233   1.351       .  A
C232        C431   1.480       .  S
C234        N235   1.356       .  A
C234        C422   1.485       .  S
N235        C236   1.354       .  A
C236        C407   1.488       .  S
N237        C238   1.361       .  A
C238        N239   1.364       .  A
C240        N241   1.365       .  A
C240        N245   1.356       .  A
C240        C383   1.487       .  S
N241        C242   1.366       .  A
C242        N243   1.358       .  A
C242        C248   1.468       .  S
N243        C244   1.350       .  A
C244        N245   1.354       .  A
C244        C398   1.481       .  S
C246        N251   1.352       .  A
C246        C362   1.494       .  S
N247        C248   1.365       .  A
C248        N249   1.362       .  A
C250        N251   1.349       .  A
C250        C371   1.480       .  S
C252        N253   1.354       .  A
C252        N257   1.361       .  A
C252        C350   1.482       .  S
N253        C254   1.355       .  A
C254        N255   1.355       .  A
C254        C335   1.490       .  S
N255        C256   1.361       .  A
C256        N257   1.364       .  A
C256        C260   1.469       .  S
C258        N263   1.357       .  A
C258        C323   1.478       .  S
N259        C260   1.362       .  A
C260        N261   1.360       .  A
C262        N263   1.358       .  A
C262        C311   1.490       .  S
O264       Mn290   2.089       .  S
O264        C745   1.268   1_545  A
C265        C419   1.482       .  S
C265        O298   1.271       .  A
C265        O295   1.266       .  A
O266       Mn273   2.164       .  S
O266       Mn284   2.107       .  S
O266       Mn288   2.186       .  S
O266       Mn744   2.107       .  S
O267       Mn301   2.112       .  S
O267        C277   1.274       .  A
O268       Mn284   2.105       .  S
O268        C291   1.270       .  A
O269       Mn288   2.126       .  S
O269        C296   1.255       .  A
O270      Mn1209   1.954       .  S
O270       Mn290   1.945       .  S
O270        C286   1.210       .  S
C271        C395   1.480       .  S
C271        O274   1.258       .  A
C271        O297   1.233       .  A
O272      Mn1200   2.109       .  S
O272       Mn273   2.185       .  S
O272       Mn306   2.112       .  S
O272       Mn288   2.184       .  S
Mn273      O1210   2.112       .  S
Mn273       O278   2.136       .  S
Mn273       O759   2.139       .  S
Mn273      O1641   2.185       .  S
O274      Mn1196   2.137   1_455  S
O275       Mn282   2.088       .  S
O275        C277   1.270       .  A
C276        C374   1.480       .  S
C276        O302   1.252       .  A
C276        O289   1.217       .  S
C277        C446   1.478       .  S
O278        C303   1.256       .  A
O279      Mn1635   2.185   1_445  S
O279       Mn282   2.114       .  S
O279       Mn301   2.105       .  S
O279      Mn1650   2.173   1_445  S
O280       Mn284   1.956       .  S
O280       Mn306   1.940       .  S
O280        C303   1.211       .  S
C281        C347   1.485       .  S
C281       O1215   1.276       .  A
C281        O283   1.268       .  A
Mn282       O295   2.084       .  S
Mn282       O751   2.009   1_545  S
Mn282       O743   1.962   1_545  S
O283       Mn306   2.075       .  S
Mn284       O300   2.087       .  S
Mn284       O294   1.942       .  S
O285       Mn290   2.104       .  S
O285        C741   1.273   1_545  A
C286        C338   1.491       .  S
C286        O304   1.257       .  A
C287        C359   1.472       .  S
C287        O739   1.273       .  A
C287        O300   1.270       .  A
Mn288      O1182   2.137       .  S
Mn288       O758   2.137       .  S
Mn288      O1641   2.173       .  S
O289       Mn736   1.962       .  S
O289       Mn292   1.978       .  S
Mn290       O720   2.107   1_545  S
Mn290       O308   1.951       .  S
C291        C386   1.486       .  S
C291        O718   1.268       .  A
Mn292       O299   2.077       .  S
Mn292       O307   2.126       .  S
Mn292      O1180   2.109   1_455  S
Mn292       O297   2.015       .  S
C293        C326   1.492       .  S
C293       O1207   1.267       .  A
C293        O309   1.273       .  A
O294       Mn306   1.947       .  S
O294        C296   1.212       .  S
C296        C434   1.482       .  S
O297       Mn736   2.009       .  S
O298       Mn301   2.099       .  S
O299       C1201   1.267   1_455  A
Mn301      O1178   1.954   1_455  S
Mn301      O1216   1.953   1_455  S
O302      Mn1181   2.112   1_455  S
C303        C410   1.489       .  S
O304       Mn742   2.137   1_545  S
O305       Mn727   2.139   1_545  S
O305        C310   1.258       .  A
Mn306       O309   2.109       .  S
O307       C1189   1.276   1_455  A
O308      Mn1209   1.953       .  S
O308        C310   1.211       .  S
C310        C314   1.490       .  S
C311       C1220   1.402       .  A
C311        C316   1.418       .  A
C312       C1219   1.402   1_455  A
C312        C313   1.395       .  A
C312        H317   1.085       .  S
C313       C1222   1.420   1_455  A
C313        C320   1.445       .  S
C314       C1221   1.420       .  A
C314        C315   1.402       .  A
C315        C316   1.406       .  A
C315        H318   1.078       .  S
C316        C319   1.444   1_556  S
C320        N322   1.157       .  T
C323       C1232   1.399       .  A
C323        C328   1.410       .  A
C324       C1231   1.399   1_455  A
C324        C325   1.398       .  A
C324        H329   1.086       .  S
C325       C1234   1.421   1_455  A
C325        C332   1.445       .  S
C326       C1233   1.421       .  A
C326        C327   1.409       .  A
C327        C328   1.405       .  A
C327        H330   1.085       .  S
C328        C331   1.443       .  S
C331        N333   1.157   1_556  T
C332        N334   1.157       .  T
C335        C336   1.401       .  A
C335       C1248   1.418       .  A
C336        C337   1.391       .  A
C336        H341   1.084       .  S
C337        C338   1.421       .  A
C337        C344   1.446       .  S
C338       C1247   1.403       .  A
C339       C1246   1.403       .  A
C339        C340   1.407       .  A
C339        H342   1.080       .  S
C340       C1243   1.418       .  A
C340        C343   1.443   1_655  S
C343        N345   1.157       .  T
C344        N346   1.157       .  T
C347        C348   1.404       .  A
C347       C1260   1.413       .  A
C348        C349   1.397       .  A
C348        H353   1.085       .  S
C349        C350   1.413       .  A
C349        C356   1.445       .  S
C350       C1259   1.402       .  A
C351       C1258   1.402       .  A
C351        C352   1.406       .  A
C351        H354   1.085   1_655  S
C352       C1255   1.413       .  A
C352        C355   1.436   1_655  S
C355        N357   1.155       .  T
C356        N358   1.157       .  T
C359        C360   1.395       .  A
C359        C364   1.408       .  A
C360        C361   1.394       .  A
C360        H365   1.086       .  S
C361        C362   1.424       .  A
C361        C368   1.446       .  S
C362        C363   1.409       .  A
C363        C364   1.406       .  A
C363        H593   1.084   1_556  S
C364        C821   1.440       .  S
H366        C590   1.084       .  S
C367        C818   1.440       .  S
C367        N369   1.156       .  T
C368        N370   1.158       .  T
C371        C372   1.408       .  A
C371        C830   1.411       .  A
C372        C373   1.408       .  A
C373        C374   1.412       .  A
C373        C380   1.443       .  S
C374        C829   1.403       .  A
C375        C828   1.403       .  A
C375        C376   1.390   1_565  A
C375        H378   1.084   1_565  S
C376        C825   1.411   1_545  A
C376        C379   1.446       .  S
C379        N381   1.157       .  T
C380        N382   1.157       .  T
C383        C384   1.405       .  A
C383        C388   1.413       .  A
C384        C385   1.397       .  A
C384        H843   1.085       .  S
C385        C386   1.414       .  A
C385        C846   1.446       .  S
C386        C387   1.408       .  A
C387        C388   1.409       .  A
C387        H390   1.085       .  S
C388        C391   1.443       .  S
H389        C838   1.085       .  S
C391        N393   1.157       .  T
C392        C839   1.446       .  S
C392        N394   1.157       .  T
C395        C396   1.402       .  A
C395        C400   1.422       .  A
C396        C397   1.406       .  A
C396        H855   1.083       .  S
C397        C398   1.418       .  A
C397        C858   1.442       .  S
C398        C399   1.397       .  A
C399        C400   1.387       .  A
C399        H402   1.086       .  S
C400        C403   1.448       .  S
H401        C850   1.083   1_545  S
C403        N405   1.157       .  T
C404        C851   1.442   1_545  S
C404        N406   1.157       .  T
C407        C408   1.400       .  A
C407        C412   1.417       .  A
C408        C409   1.391       .  A
C408        H413   1.085       .  S
C409        C410   1.421       .  A
C409        C416   1.446       .  S
C410        C411   1.405       .  A
C411        C412   1.408       .  A
C411        H414   1.082       .  S
C415        N417   1.157       .  T
C416        N418   1.158       .  T
C419        C420   1.408       .  A
C419        C424   1.412       .  A
C420        C421   1.407       .  A
C420        H425   1.085       .  S
C421        C422   1.413       .  A
C421        C428   1.443   1_556  S
C422        C423   1.405       .  A
C423        C424   1.395       .  A
C423        H426   1.085       .  S
C424        C427   1.446       .  S
C427        N429   1.157       .  T
C428        N430   1.157       .  T
C431        C432   1.399       .  A
C431        C436   1.415       .  A
C432        C433   1.388       .  A
C432        H437   1.085       .  S
C433        C434   1.418       .  A
C433        C440   1.446       .  S
C434        C435   1.406       .  A
C435        C436   1.408       .  A
C435        H438   1.085       .  S
C436        C439   1.444       .  S
C439        N441   1.157       .  T
C440        N442   1.158       .  T
C443        C444   1.408       .  A
C443        C448   1.424       .  A
C444        C445   1.408       .  A
C444        H449   1.084       .  S
C445        C446   1.410       .  A
C445        C452   1.439       .  S
C446        C447   1.397       .  A
C447        C448   1.396       .  A
C447        H450   1.086       .  S
C448        C451   1.446       .  S
C451        N453   1.158       .  T
C452        N454   1.156       .  T
C455        N456   1.367       .  A
C455        N460   1.353       .  A
C455        C670   1.497       .  S
N456        C457   1.368       .  A
C457        N458   1.360       .  A
C457        C465   1.469       .  S
N458        C459   1.350       .  A
C459        N460   1.351       .  A
C459        C658   1.480       .  S
C461        N462   1.356       .  A
C461        N693   1.363       .  A
C461        C649   1.485       .  S
N462        C463   1.354       .  A
C463        N691   1.352       .  A
C463        C634   1.488       .  S
N464        C690   1.352   1_554  A
N464        C465   1.361       .  A
C465        N466   1.364       .  A
N466        C688   1.363   1_554  A
C467        N468   1.365       .  A
C467        N472   1.356       .  A
C467        C610   1.487       .  S
N468        C469   1.366       .  A
C469        N470   1.358       .  A
C469        C475   1.468       .  S
N470        C471   1.350       .  A
C471        N472   1.354       .  A
C471        C625   1.481       .  S
C473        N701   1.365       .  A
C473        N478   1.352       .  A
C473        C589   1.494       .  S
N474        C700   1.365   1_554  A
N474        C475   1.365       .  A
C475        N476   1.362       .  A
N476        C704   1.352   1_554  A
C477        N703   1.352       .  A
C477        N478   1.349       .  A
C477        C598   1.480       .  S
C479        N480   1.354       .  A
C479        N484   1.361       .  A
C479        C577   1.482       .  S
N480        C481   1.355       .  A
C481        N482   1.355       .  A
C481        C562   1.490       .  S
N482        C483   1.361       .  A
C483        N484   1.364       .  A
C483        C487   1.469       .  S
C485        N713   1.360       .  A
C485        N490   1.357       .  A
C485        C550   1.478       .  S
N486        C712   1.360   1_554  A
N486        C487   1.362       .  A
C487        N488   1.360       .  A
N488        C716   1.355   1_554  A
C489        N715   1.355       .  A
C489        N490   1.358       .  A
C489        C538   1.490       .  S
O491       Mn517   2.089       .  S
C492        C646   1.482       .  S
C492        O525   1.271       .  A
C492        O522   1.266       .  A
O493       Mn500   2.164       .  S
O493       Mn511   2.107       .  S
O493       Mn515   2.186       .  S
O494       Mn528   2.112       .  S
O494        C504   1.274       .  A
O495       Mn511   2.105       .  S
O495        C518   1.270       .  A
O496       Mn515   2.126       .  S
O496        C523   1.255       .  A
O497      Mn1436   1.954       .  S
O497       Mn517   1.945       .  S
O497        C513   1.210       .  S
C498        C622   1.480       .  S
C498        O501   1.258       .  A
C498        O524   1.233       .  A
O499      Mn1427   2.109       .  S
O499       Mn500   2.185       .  S
O499       Mn533   2.112       .  S
O499       Mn515   2.184       .  S
Mn500      O1437   2.112       .  S
Mn500       O505   2.136       .  S
Mn500       O960   2.185   1_565  S
O501      Mn1423   2.137   1_455  S
O502       Mn509   2.088       .  S
O502        C504   1.270       .  A
C503        C601   1.480       .  S
C503        O529   1.252       .  A
C503        O516   1.217       .  S
C504        C673   1.478       .  S
O505        C530   1.256       .  A
O506       Mn954   2.185   1_455  S
O506       Mn509   2.114       .  S
O506       Mn528   2.105       .  S
O506       Mn969   2.173   1_455  S
O507       Mn511   1.956       .  S
O507       Mn533   1.940       .  S
O507        C530   1.211       .  S
C508        C574   1.485       .  S
C508       O1442   1.276       .  A
C508        O510   1.268       .  A
Mn509       O522   2.084       .  S
O510       Mn533   2.075       .  S
Mn511       O527   2.087       .  S
Mn511       O521   1.942       .  S
O512       Mn517   2.104       .  S
C513        C565   1.491       .  S
C513        O531   1.257       .  A
C514        C586   1.472       .  S
C514        O527   1.270       .  A
Mn515      O1409   2.137       .  S
Mn515       O960   2.173   1_565  S
O516       Mn519   1.978       .  S
Mn517       O535   1.951       .  S
C518        C613   1.486       .  S
Mn519       O526   2.077       .  S
Mn519       O534   2.126       .  S
Mn519      O1407   2.109   1_455  S
Mn519       O524   2.015       .  S
C520        C553   1.492       .  S
C520       O1434   1.267       .  A
C520        O536   1.273       .  A
O521       Mn533   1.947       .  S
O521        C523   1.212       .  S
C523        C661   1.482       .  S
O525       Mn528   2.099       .  S
O526       C1428   1.267   1_455  A
Mn528      O1405   1.954   1_455  S
Mn528      O1443   1.953   1_455  S
O529      Mn1408   2.112   1_455  S
C530        C637   1.489       .  S
O532        C537   1.258       .  A
Mn533       O536   2.109       .  S
O534       C1416   1.276   1_455  A
O535      Mn1436   1.953       .  S
O535        C537   1.211       .  S
C537        C541   1.490       .  S
C538       C1447   1.402       .  A
C538        C543   1.418       .  A
C539       C1446   1.402   1_455  A
C539        C540   1.395       .  A
C539        H544   1.085       .  S
C540       C1449   1.420   1_455  A
C540        C547   1.445       .  S
C541       C1448   1.420       .  A
C541        C542   1.402       .  A
C542        C543   1.406       .  A
C542        H545   1.078       .  S
C543        C546   1.444       .  S
C546        N775   1.157       .  T
C547        N549   1.157       .  T
N548        C773   1.157       .  T
C550       C1459   1.399       .  A
C550        C555   1.410       .  A
C551       C1458   1.399   1_455  A
C551        C552   1.398       .  A
C551        H556   1.086       .  S
C552       C1461   1.421   1_455  A
C552        C559   1.445       .  S
C553       C1460   1.421       .  A
C553        C554   1.409       .  A
C554        C555   1.405       .  A
C554        H557   1.084       .  S
C555        C558   1.443       .  S
C558        N560   1.157       .  T
C559        N561   1.157       .  T
C562        C563   1.401       .  A
C562       C1475   1.418       .  A
C563        C564   1.391       .  A
C563        H568   1.084       .  S
C564        C565   1.421       .  A
C564        C571   1.446       .  S
C565       C1474   1.403       .  A
C566       C1473   1.403       .  A
C566        C567   1.407       .  A
C566        H569   1.080       .  S
C567       C1470   1.418       .  A
C567        C570   1.443   1_655  S
C570        N572   1.157       .  T
C571        N573   1.157       .  T
C574        C575   1.404       .  A
C574       C1487   1.413       .  A
C575        C576   1.397       .  A
C575        H580   1.085       .  S
C576        C577   1.413       .  A
C576        C583   1.445       .  S
C577       C1486   1.402       .  A
C578       C1485   1.402       .  A
C578        C579   1.406       .  A
C578        H581   1.085   1_655  S
C579       C1482   1.413       .  A
C579        C582   1.436   1_655  S
C582        N584   1.155       .  T
C583        N585   1.157       .  T
C586        C587   1.395       .  A
C586        C591   1.408       .  A
C587        C588   1.394       .  A
C587        H592   1.086       .  S
C588        C589   1.424       .  A
C588        C595   1.446       .  S
C589        C590   1.409       .  A
C590        C591   1.406       .  A
C594        N596   1.156       .  T
C595        N597   1.158       .  T
C598        C599   1.408       .  A
C599        C600   1.408       .  A
C599        H831   1.084       .  S
C600        C601   1.412       .  A
C600        C607   1.443       .  S
C602        C603   1.390       .  A
C602        H605   1.084       .  S
C603        C606   1.446       .  S
H604        C826   1.084   1_554  S
C606        N608   1.157       .  T
C607        N609   1.157       .  T
C610        C611   1.405   1_565  A
C610        C615   1.413       .  A
C611        C612   1.397       .  A
C612        C613   1.414   1_545  A
C613        C614   1.408       .  A
C614        C615   1.409       .  A
C614        H617   1.085       .  S
C615        C618   1.443       .  S
C618        N620   1.157       .  T
C619        N621   1.157       .  T
C622        C623   1.402       .  A
C622        C627   1.422       .  A
C623        C624   1.406       .  A
C624        C625   1.418       .  A
C625        C626   1.397       .  A
C626        C627   1.387       .  A
C626        H629   1.086       .  S
C627        C630   1.448       .  S
C630        N632   1.157       .  T
C631        N633   1.157       .  T
C634        C635   1.400       .  A
C634        C639   1.417       .  A
C635        C636   1.391       .  A
C635        H640   1.085       .  S
C636        C637   1.421       .  A
C636        C643   1.446       .  S
C637        C638   1.405       .  A
C638        C639   1.408       .  A
C638        H641   1.082       .  S
C639        C869   1.443       .  S
C642        C866   1.443   1_554  S
C642        N644   1.157       .  T
C643        N645   1.158       .  T
C646        C647   1.408       .  A
C646        C651   1.412       .  A
C647        C648   1.407       .  A
C647        H652   1.085       .  S
C648        C649   1.413       .  A
C648        C655   1.443       .  S
C649        C650   1.405       .  A
C650        C651   1.395       .  A
C650        H653   1.085       .  S
C651        C654   1.446       .  S
C654        N656   1.157       .  T
C655        N657   1.157       .  T
C658        C659   1.399       .  A
C658        C663   1.415       .  A
C659        C660   1.388       .  A
C659        H664   1.086       .  S
C660        C661   1.418       .  A
C660        C667   1.446       .  S
C661        C662   1.406       .  A
C662        C663   1.408       .  A
C662        H665   1.085       .  S
C663        C666   1.443       .  S
C666        N668   1.157       .  T
C667        N669   1.158       .  T
C670        C671   1.408       .  A
C670        C675   1.424       .  A
C671        C672   1.408       .  A
C671        H676   1.084       .  S
C672        C673   1.410       .  A
C672        C679   1.439       .  S
C673        C674   1.397       .  A
C674        C675   1.396       .  A
C674        H677   1.086       .  S
C675        C678   1.446       .  S
C678        N680   1.158       .  T
C679        N681   1.156       .  T
C682        N683   1.367       .  A
C682        N687   1.353       .  A
C682        C897   1.497       .  S
N683        C684   1.368       .  A
C684        N685   1.360       .  A
C684        C692   1.469       .  S
N685        C686   1.350       .  A
C686        N687   1.351       .  A
C686        C885   1.480       .  S
C688        N689   1.356       .  A
C688        C876   1.485       .  S
N689        C690   1.354       .  A
C690        C861   1.488       .  S
N691        C692   1.361       .  A
C692        N693   1.364       .  A
C694        N695   1.365       .  A
C694        N699   1.356       .  A
C694        C837   1.487       .  S
N695        C696   1.366       .  A
C696        N697   1.358       .  A
C696        C702   1.468       .  S
N697        C698   1.350       .  A
C698        N699   1.354       .  A
C698        C852   1.481       .  S
C700        N705   1.352       .  A
C700        C816   1.494       .  S
N701        C702   1.365       .  A
C702        N703   1.362       .  A
C704        N705   1.349       .  A
C704        C825   1.480       .  S
C706        N707   1.354       .  A
C706        N711   1.361       .  A
C706        C804   1.482       .  S
N707        C708   1.355       .  A
C708        N709   1.355       .  A
C708        C789   1.490       .  S
N709        C710   1.361       .  A
C710        N711   1.364       .  A
C710        C714   1.469       .  S
C712        N717   1.357       .  A
C712        C777   1.478       .  S
N713        C714   1.362       .  A
C714        N715   1.360       .  A
C716        N717   1.358       .  A
C716        C765   1.490       .  S
O718       Mn744   2.089       .  S
C719        C873   1.482       .  S
C719        O752   1.271       .  A
C719        O749   1.266       .  A
O720       Mn727   2.164       .  S
O720       Mn738   2.107       .  S
O720       Mn742   2.186       .  S
O721       Mn755   2.112       .  S
O721        C731   1.274       .  A
O722       Mn738   2.105       .  S
O722        C745   1.270       .  A
O723       Mn742   2.126       .  S
O723        C750   1.255       .  A
O724      Mn1663   1.954       .  S
O724       Mn744   1.945       .  S
O724        C740   1.210       .  S
C725        C849   1.480       .  S
C725        O728   1.258       .  A
C725        O751   1.233       .  A
O726      Mn1654   2.109       .  S
O726       Mn727   2.185       .  S
O726       Mn760   2.112       .  S
O726       Mn742   2.184       .  S
Mn727      O1664   2.112       .  S
Mn727       O732   2.136       .  S
Mn727      O1187   2.185   1_565  S
O728      Mn1650   2.137   1_455  S
O729       Mn736   2.088       .  S
O729        C731   1.270       .  A
C730        C828   1.480       .  S
C730        O756   1.252       .  A
C730        O743   1.217       .  S
C731        C900   1.478       .  S
O732        C757   1.256       .  A
O733      Mn1181   2.185   1_455  S
O733       Mn736   2.114       .  S
O733       Mn755   2.105       .  S
O733      Mn1196   2.173   1_455  S
O734       Mn738   1.956       .  S
O734       Mn760   1.940       .  S
O734        C757   1.211       .  S
C735        C801   1.485       .  S
C735       O1669   1.276       .  A
C735        O737   1.268       .  A
Mn736       O749   2.084       .  S
O737       Mn760   2.075       .  S
Mn738       O754   2.087       .  S
Mn738       O748   1.942       .  S
O739       Mn744   2.104       .  S
C740        C792   1.491       .  S
C740        O758   1.257       .  A
C741        C813   1.472       .  S
C741        O754   1.270       .  A
Mn742      O1636   2.137       .  S
Mn742      O1187   2.173   1_565  S
O743       Mn746   1.978       .  S
Mn744       O762   1.951       .  S
C745        C840   1.486       .  S
Mn746       O753   2.077       .  S
Mn746       O761   2.126       .  S
Mn746      O1634   2.109   1_455  S
Mn746       O751   2.015       .  S
C747        C780   1.492       .  S
C747       O1661   1.267       .  A
C747        O763   1.273       .  A
O748       Mn760   1.947       .  S
O748        C750   1.212       .  S
C750        C888   1.482       .  S
O752       Mn755   2.099       .  S
O753       C1655   1.267   1_455  A
Mn755      O1632   1.954   1_455  S
Mn755      O1670   1.953   1_455  S
O756      Mn1635   2.112   1_455  S
C757        C864   1.489       .  S
O759        C764   1.258       .  A
Mn760       O763   2.109       .  S
O761       C1643   1.276   1_455  A
O762      Mn1663   1.953       .  S
O762        C764   1.211       .  S
C764        C768   1.490       .  S
C765       C1674   1.402       .  A
C765        C770   1.418       .  A
C766       C1673   1.402   1_455  A
C766        C767   1.395       .  A
C766        H771   1.085       .  S
C767       C1676   1.420   1_455  A
C767        C774   1.445       .  S
C768       C1675   1.420       .  A
C768        C769   1.402       .  A
C769        C770   1.406       .  A
C769        H772   1.078       .  S
C770        C773   1.444   1_556  S
C774        N776   1.157       .  T
C777       C1686   1.399       .  A
C777        C782   1.410       .  A
C778       C1685   1.399   1_455  A
C778        C779   1.398       .  A
C778        H783   1.086       .  S
C779       C1688   1.421   1_455  A
C779        C786   1.445       .  S
C780       C1687   1.421       .  A
C780        C781   1.409       .  A
C781        C782   1.405       .  A
C781        H784   1.084       .  S
C782        C785   1.443       .  S
C785        N787   1.157   1_556  T
C786        N788   1.157       .  T
C789        C790   1.401       .  A
C789       C1702   1.418       .  A
C790        C791   1.391       .  A
C790        H795   1.084       .  S
C791        C792   1.421       .  A
C791        C798   1.446       .  S
C792       C1701   1.403       .  A
C793       C1700   1.403       .  A
C793        C794   1.407       .  A
C793        H796   1.080       .  S
C794       C1697   1.418       .  A
C794        C797   1.443   1_655  S
C797        N799   1.157       .  T
C798        N800   1.157       .  T
C801        C802   1.404       .  A
C801       C1714   1.413       .  A
C802        C803   1.397       .  A
C802        H807   1.085       .  S
C803        C804   1.413       .  A
C803        C810   1.445       .  S
C804       C1713   1.402       .  A
C805       C1712   1.402       .  A
C805        C806   1.406       .  A
C805        H808   1.085   1_655  S
C806       C1709   1.413       .  A
C806        C809   1.436   1_655  S
C809        N811   1.155       .  T
C810        N812   1.157       .  T
C813        C814   1.395       .  A
C813        C818   1.408       .  A
C814        C815   1.394       .  A
C814        H819   1.086       .  S
C815        C816   1.424       .  A
C815        C822   1.446       .  S
C816        C817   1.409       .  A
C817        C818   1.406       .  A
C821        N823   1.156       .  T
C822        N824   1.158       .  T
C825        C826   1.408       .  A
C826        C827   1.408       .  A
C827        C828   1.412       .  A
C827        C834   1.443       .  S
C829        C830   1.390       .  A
C829        H832   1.084       .  S
C830        C833   1.446       .  S
C833        N835   1.157       .  T
C834        N836   1.157       .  T
C837        C838   1.405   1_565  A
C837        C842   1.413       .  A
C838        C839   1.397       .  A
C839        C840   1.414   1_545  A
C840        C841   1.408       .  A
C841        C842   1.409       .  A
C841        H844   1.085       .  S
C842        C845   1.443       .  S
C845        N847   1.157       .  T
C846        N848   1.157       .  T
C849        C850   1.402       .  A
C849        C854   1.422       .  A
C850        C851   1.406       .  A
C851        C852   1.418       .  A
C852        C853   1.397       .  A
C853        C854   1.387       .  A
C853        H856   1.086       .  S
C854        C857   1.448       .  S
C857        N859   1.157       .  T
C858        N860   1.157       .  T
C861        C862   1.400       .  A
C861        C866   1.417       .  A
C862        C863   1.391       .  A
C862        H867   1.085       .  S
C863        C864   1.421       .  A
C863        C870   1.446       .  S
C864        C865   1.405       .  A
C865        C866   1.408       .  A
C865        H868   1.082       .  S
C869        N871   1.157       .  T
C870        N872   1.158       .  T
C873        C874   1.408       .  A
C873        C878   1.412       .  A
C874        C875   1.407       .  A
C874        H879   1.085       .  S
C875        C876   1.413       .  A
C875        C882   1.443   1_556  S
C876        C877   1.405       .  A
C877        C878   1.395       .  A
C877        H880   1.085       .  S
C878        C881   1.446       .  S
C881        N883   1.157       .  T
C882        N884   1.157       .  T
C885        C886   1.399       .  A
C885        C890   1.415       .  A
C886        C887   1.388       .  A
C886        H891   1.086       .  S
C887        C888   1.418       .  A
C887        C894   1.446       .  S
C888        C889   1.406       .  A
C889        C890   1.408       .  A
C889        H892   1.085       .  S
C890        C893   1.443       .  S
C893        N895   1.157       .  T
C894        N896   1.158       .  T
C897        C898   1.408       .  A
C897        C902   1.424       .  A
C898        C899   1.408       .  A
C898        H903   1.084       .  S
C899        C900   1.410       .  A
C899        C906   1.439       .  S
C900        C901   1.397       .  A
C901        C902   1.396       .  A
C901        H904   1.086       .  S
C902        C905   1.446       .  S
C905        N907   1.158       .  T
C906        N908   1.156       .  T
C909        N910   1.367       .  A
C909        N914   1.353       .  A
C909       C1124   1.497       .  S
N910        C911   1.368       .  A
C911        N912   1.360       .  A
C911        C919   1.469       .  S
N912        C913   1.350       .  A
C913        N914   1.351       .  A
C913       C1112   1.480       .  S
C915        N916   1.356       .  A
C915       N1147   1.363       .  A
C915       C1103   1.485       .  S
N916        C917   1.354       .  A
C917       N1145   1.352       .  A
C917       C1088   1.488       .  S
N918       C1144   1.352   1_554  A
N918        C919   1.361       .  A
C919        N920   1.364       .  A
N920       C1142   1.363   1_554  A
C921        N922   1.365       .  A
C921        N926   1.356       .  A
C921       C1064   1.487       .  S
N922        C923   1.366       .  A
C923        N924   1.358       .  A
C923        C929   1.468       .  S
N924        C925   1.350       .  A
C925        N926   1.354       .  A
C925       C1079   1.481       .  S
C927       N1155   1.365       .  A
C927        N932   1.352       .  A
C927       C1043   1.494       .  S
N928       C1154   1.365   1_554  A
N928        C929   1.365       .  A
C929        N930   1.362       .  A
N930       C1158   1.352   1_554  A
C931       N1157   1.352       .  A
C931        N932   1.349       .  A
C931       C1052   1.480       .  S
C933        N934   1.354       .  A
C933        N938   1.361       .  A
C933       C1031   1.482       .  S
N934        C935   1.355       .  A
C935        N936   1.355       .  A
C935       C1016   1.490       .  S
N936        C937   1.361       .  A
C937        N938   1.364       .  A
C937        C941   1.469       .  S
C939       N1167   1.360       .  A
C939        N944   1.357       .  A
C939       C1004   1.478       .  S
N940       C1166   1.360   1_554  A
N940        C941   1.362       .  A
C941        N942   1.360       .  A
N942       C1170   1.355   1_554  A
C943       N1169   1.355       .  A
C943        N944   1.358       .  A
C943        C992   1.490       .  S
O945       Mn971   2.089       .  S
O945       C1426   1.268   1_545  A
C946       C1100   1.482       .  S
C946        O979   1.271       .  A
C946        O976   1.266       .  A
O947       Mn954   2.164       .  S
O947       Mn965   2.107       .  S
O947       Mn969   2.186       .  S
O947      Mn1425   2.107       .  S
O948       Mn982   2.112       .  S
O948        C958   1.274       .  A
O949       Mn965   2.105       .  S
O949        C972   1.270       .  A
O950       Mn969   2.126       .  S
O950        C977   1.255       .  A
O951       Mn971   1.945       .  S
O951        C967   1.210       .  S
C952       C1076   1.480       .  S
C952        O955   1.258       .  A
C952        O978   1.233       .  A
O953       Mn954   2.185       .  S
O953       Mn987   2.112       .  S
O953       Mn969   2.184       .  S
Mn954       O959   2.136       .  S
Mn954      O1440   2.139       .  S
O956       Mn963   2.088       .  S
O956        C958   1.270       .  A
C957       C1055   1.480       .  S
C957        O983   1.252       .  A
C957        O970   1.217       .  S
C958       C1127   1.478       .  S
O959        C984   1.256       .  A
O960       Mn963   2.114       .  S
O960       Mn982   2.105       .  S
O961       Mn965   1.956       .  S
O961       Mn987   1.940       .  S
O961        C984   1.211       .  S
C962       C1028   1.485       .  S
C962        O964   1.268       .  A
Mn963       O976   2.084       .  S
Mn963      O1432   2.009   1_545  S
Mn963      O1424   1.962   1_545  S
O964       Mn987   2.075       .  S
Mn965       O981   2.087       .  S
Mn965       O975   1.942       .  S
O966       Mn971   2.104       .  S
O966       C1422   1.273   1_545  A
C967       C1019   1.491       .  S
C967        O985   1.257       .  A
C968       C1040   1.472       .  S
C968       O1420   1.273       .  A
C968        O981   1.270       .  A
Mn969      O1439   2.137       .  S
O970      Mn1417   1.962       .  S
O970       Mn973   1.978       .  S
Mn971      O1401   2.107   1_545  S
Mn971       O989   1.951       .  S
C972       C1067   1.486       .  S
C972       O1399   1.268       .  A
Mn973       O980   2.077       .  S
Mn973       O988   2.126       .  S
Mn973       O978   2.015       .  S
C974       C1007   1.492       .  S
C974        O990   1.273       .  A
O975       Mn987   1.947       .  S
O975        C977   1.212       .  S
C977       C1115   1.482       .  S
O978      Mn1417   2.009       .  S
O979       Mn982   2.099       .  S
C984       C1091   1.489       .  S
O985      Mn1423   2.137   1_545  S
O986      Mn1408   2.139   1_545  S
O986        C991   1.258       .  A
Mn987       O990   2.109       .  S
O989        C991   1.211       .  S
C991        C995   1.490       .  S
C992        C997   1.418       .  A
C993        C994   1.395       .  A
C993        H998   1.085       .  S
C994       C1001   1.445       .  S
C995        C996   1.402       .  A
C996        C997   1.406       .  A
C996        H999   1.078       .  S
C997       C1000   1.444       .  S
C1000      N1229   1.157       .  T
C1001      N1003   1.157       .  T
N1002      C1227   1.157       .  T
C1004      C1009   1.410       .  A
C1005      C1006   1.398       .  A
C1005      H1010   1.086       .  S
C1006      C1013   1.445       .  S
C1007      C1008   1.409       .  A
C1008      C1009   1.405       .  A
C1008      H1011   1.084       .  S
C1009      C1012   1.443       .  S
C1012      N1014   1.157       .  T
C1013      N1015   1.157       .  T
C1016      C1017   1.401       .  A
C1017      C1018   1.391       .  A
C1017      H1022   1.084       .  S
C1018      C1019   1.421       .  A
C1018      C1025   1.446       .  S
C1020      C1021   1.407       .  A
C1020      H1023   1.080       .  S
C1021      C1024   1.443       .  S
C1024      N1026   1.157       .  T
C1025      N1027   1.157       .  T
C1028      C1029   1.404       .  A
C1029      C1030   1.397       .  A
C1029      H1034   1.085       .  S
C1030      C1031   1.413       .  A
C1030      C1037   1.445       .  S
C1032      C1033   1.406       .  A
C1032      H1035   1.085       .  S
C1033      C1036   1.436       .  S
C1036      N1038   1.155       .  T
C1037      N1039   1.157       .  T
C1040      C1041   1.395       .  A
C1040      C1045   1.408       .  A
C1041      C1042   1.394       .  A
C1041      H1046   1.086       .  S
C1042      C1043   1.424       .  A
C1042      C1049   1.446       .  S
C1043      C1044   1.409       .  A
C1044      C1045   1.406       .  A
C1044      H1728   1.084       .  S
C1045      C1502   1.440       .  S
H1047      C1725   1.084   1_554  S
C1048      C1499   1.440       .  S
C1048      N1050   1.156       .  T
C1049      N1051   1.158       .  T
C1052      C1053   1.408       .  A
C1052      C1511   1.411       .  A
C1053      C1054   1.408       .  A
C1053      H1285   1.084       .  S
C1054      C1055   1.412       .  A
C1054      C1061   1.443       .  S
C1055      C1510   1.403       .  A
C1056      C1509   1.403       .  A
C1056      C1057   1.390   1_565  A
C1056      H1059   1.084   1_565  S
C1057      C1506   1.411   1_545  A
C1057      C1060   1.446       .  S
H1058      C1280   1.084   1_554  S
C1060      N1062   1.157       .  T
C1061      N1063   1.157       .  T
C1064      C1065   1.405       .  A
C1064      C1069   1.413       .  A
C1065      C1066   1.397       .  A
C1065      H1524   1.085       .  S
C1066      C1067   1.414       .  A
C1066      C1527   1.446       .  S
C1067      C1068   1.408       .  A
C1068      C1069   1.409       .  A
C1068      H1071   1.085       .  S
C1069      C1072   1.443       .  S
H1070      C1519   1.085       .  S
C1072      N1074   1.157       .  T
C1073      C1520   1.446       .  S
C1073      N1075   1.157       .  T
C1076      C1077   1.402       .  A
C1076      C1081   1.422       .  A
C1077      C1078   1.406       .  A
C1077      H1536   1.083       .  S
C1078      C1079   1.418       .  A
C1078      C1539   1.442       .  S
C1079      C1080   1.397       .  A
C1080      C1081   1.387       .  A
C1080      H1083   1.086       .  S
C1081      C1084   1.448       .  S
H1082      C1531   1.083   1_545  S
C1084      N1086   1.157       .  T
C1085      C1532   1.442   1_545  S
C1085      N1087   1.157       .  T
C1088      C1089   1.400       .  A
C1088      C1093   1.417       .  A
C1089      C1090   1.391       .  A
C1089      H1094   1.085       .  S
C1090      C1091   1.421       .  A
C1090      C1097   1.446       .  S
C1091      C1092   1.405       .  A
C1092      C1093   1.408       .  A
C1092      H1095   1.082       .  S
C1093      C1323   1.443       .  S
C1096      C1320   1.443   1_554  S
C1096      N1098   1.157       .  T
C1097      N1099   1.158       .  T
C1100      C1101   1.408       .  A
C1100      C1105   1.412       .  A
C1101      C1102   1.407       .  A
C1101      H1106   1.085       .  S
C1102      C1103   1.413       .  A
C1102      C1109   1.443       .  S
C1103      C1104   1.405       .  A
C1104      C1105   1.395       .  A
C1104      H1107   1.085       .  S
C1105      C1108   1.446       .  S
C1108      N1110   1.157       .  T
C1109      N1111   1.157       .  T
C1112      C1113   1.399       .  A
C1112      C1117   1.415       .  A
C1113      C1114   1.388       .  A
C1113      H1118   1.086       .  S
C1114      C1115   1.418       .  A
C1114      C1121   1.446       .  S
C1115      C1116   1.406       .  A
C1116      C1117   1.408       .  A
C1116      H1119   1.085       .  S
C1117      C1120   1.443       .  S
C1120      N1122   1.157       .  T
C1121      N1123   1.158       .  T
C1124      C1125   1.408       .  A
C1124      C1129   1.424       .  A
C1125      C1126   1.408       .  A
C1125      H1130   1.084       .  S
C1126      C1127   1.410       .  A
C1126      C1133   1.439       .  S
C1127      C1128   1.397       .  A
C1128      C1129   1.396       .  A
C1128      H1131   1.086       .  S
C1129      C1132   1.446       .  S
C1132      N1134   1.158       .  T
C1133      N1135   1.156       .  T
C1136      N1137   1.367       .  A
C1136      N1141   1.353       .  A
C1136      C1351   1.497       .  S
N1137      C1138   1.368       .  A
C1138      N1139   1.360       .  A
C1138      C1146   1.469       .  S
N1139      C1140   1.350       .  A
C1140      N1141   1.351       .  A
C1140      C1339   1.480       .  S
C1142      N1143   1.356       .  A
C1142      C1330   1.485       .  S
N1143      C1144   1.354       .  A
C1144      C1315   1.488       .  S
N1145      C1146   1.361       .  A
C1146      N1147   1.364       .  A
C1148      N1149   1.365       .  A
C1148      N1153   1.356       .  A
C1148      C1291   1.487       .  S
N1149      C1150   1.366       .  A
C1150      N1151   1.358       .  A
C1150      C1156   1.468       .  S
N1151      C1152   1.350       .  A
C1152      N1153   1.354       .  A
C1152      C1306   1.481       .  S
C1154      N1159   1.352       .  A
C1154      C1270   1.494       .  S
N1155      C1156   1.365       .  A
C1156      N1157   1.362       .  A
C1158      N1159   1.349       .  A
C1158      C1279   1.480       .  S
C1160      N1161   1.354       .  A
C1160      N1165   1.361       .  A
C1160      C1258   1.482       .  S
N1161      C1162   1.355       .  A
C1162      N1163   1.355       .  A
C1162      C1243   1.490       .  S
N1163      C1164   1.361       .  A
C1164      N1165   1.364       .  A
C1164      C1168   1.469       .  S
C1166      N1171   1.357       .  A
C1166      C1231   1.478       .  S
N1167      C1168   1.362       .  A
C1168      N1169   1.360       .  A
C1170      N1171   1.358       .  A
C1170      C1219   1.490       .  S
O1172     Mn1198   2.089       .  S
O1172      C1653   1.268   1_545  A
C1173      C1327   1.482       .  S
C1173      O1206   1.271       .  A
C1173      O1203   1.266       .  A
O1174     Mn1181   2.164       .  S
O1174     Mn1192   2.107       .  S
O1174     Mn1196   2.186       .  S
O1174     Mn1652   2.107       .  S
O1175     Mn1209   2.112       .  S
O1175      C1185   1.274       .  A
O1176     Mn1192   2.105       .  S
O1176      C1199   1.270       .  A
O1177     Mn1196   2.126       .  S
O1177      C1204   1.255       .  A
O1178     Mn1198   1.945       .  S
O1178      C1194   1.210       .  S
C1179      C1303   1.480       .  S
C1179      O1182   1.258       .  A
C1179      O1205   1.233       .  A
O1180     Mn1181   2.185       .  S
O1180     Mn1214   2.112       .  S
O1180     Mn1196   2.184       .  S
Mn1181     O1186   2.136       .  S
Mn1181     O1667   2.139       .  S
O1183     Mn1190   2.088       .  S
O1183      C1185   1.270       .  A
C1184      C1282   1.480       .  S
C1184      O1210   1.252       .  A
C1184      O1197   1.217       .  S
C1185      C1354   1.478       .  S
O1186      C1211   1.256       .  A
O1187     Mn1190   2.114       .  S
O1187     Mn1209   2.105       .  S
O1188     Mn1192   1.956       .  S
O1188     Mn1214   1.940       .  S
O1188      C1211   1.211       .  S
C1189      C1255   1.485       .  S
C1189      O1191   1.268       .  A
Mn1190     O1203   2.084       .  S
Mn1190     O1659   2.009   1_545  S
Mn1190     O1651   1.962   1_545  S
O1191     Mn1214   2.075       .  S
Mn1192     O1208   2.087       .  S
Mn1192     O1202   1.942       .  S
O1193     Mn1198   2.104       .  S
O1193      C1649   1.273   1_545  A
C1194      C1246   1.491       .  S
C1194      O1212   1.257       .  A
C1195      C1267   1.472       .  S
C1195      O1647   1.273       .  A
C1195      O1208   1.270       .  A
Mn1196     O1666   2.137       .  S
O1197     Mn1644   1.962       .  S
O1197     Mn1200   1.978       .  S
Mn1198     O1628   2.107   1_545  S
Mn1198     O1216   1.951       .  S
C1199      C1294   1.486       .  S
C1199      O1626   1.268       .  A
Mn1200     O1207   2.077       .  S
Mn1200     O1215   2.126       .  S
Mn1200     O1205   2.015       .  S
C1201      C1234   1.492       .  S
C1201      O1217   1.273       .  A
O1202     Mn1214   1.947       .  S
O1202      C1204   1.212       .  S
C1204      C1342   1.482       .  S
O1205     Mn1644   2.009       .  S
O1206     Mn1209   2.099       .  S
C1211      C1318   1.489       .  S
O1212     Mn1650   2.137   1_545  S
O1213     Mn1635   2.139   1_545  S
O1213      C1218   1.258       .  A
Mn1214     O1217   2.109       .  S
O1216      C1218   1.211       .  S
C1218      C1222   1.490       .  S
C1219      C1224   1.418       .  A
C1220      C1221   1.395       .  A
C1220      H1225   1.085       .  S
C1221      C1228   1.445       .  S
C1222      C1223   1.402       .  A
C1223      C1224   1.406       .  A
C1223      H1226   1.078       .  S
C1224      C1227   1.444   1_556  S
C1228      N1230   1.157       .  T
C1231      C1236   1.410       .  A
C1232      C1233   1.398       .  A
C1232      H1237   1.086       .  S
C1233      C1240   1.445       .  S
C1234      C1235   1.409       .  A
C1235      C1236   1.405       .  A
C1235      H1238   1.085       .  S
C1236      C1239   1.443       .  S
C1239      N1241   1.157   1_556  T
C1240      N1242   1.157       .  T
C1243      C1244   1.401       .  A
C1244      C1245   1.391       .  A
C1244      H1249   1.084       .  S
C1245      C1246   1.421       .  A
C1245      C1252   1.446       .  S
C1247      C1248   1.407       .  A
C1247      H1250   1.080       .  S
C1248      C1251   1.443       .  S
C1251      N1253   1.157       .  T
C1252      N1254   1.157       .  T
C1255      C1256   1.404       .  A
C1256      C1257   1.397       .  A
C1256      H1261   1.085       .  S
C1257      C1258   1.413       .  A
C1257      C1264   1.445       .  S
C1259      C1260   1.406       .  A
C1259      H1262   1.085       .  S
C1260      C1263   1.436       .  S
C1263      N1265   1.155       .  T
C1264      N1266   1.157       .  T
C1267      C1268   1.395       .  A
C1267      C1272   1.408       .  A
C1268      C1269   1.394       .  A
C1268      H1273   1.086       .  S
C1269      C1270   1.424       .  A
C1269      C1276   1.446       .  S
C1270      C1271   1.409       .  A
C1271      C1272   1.406       .  A
C1271      H1501   1.084   1_556  S
C1272      C1729   1.440       .  S
H1274      C1498   1.084       .  S
C1275      C1726   1.440       .  S
C1275      N1277   1.156       .  T
C1276      N1278   1.158       .  T
C1279      C1280   1.408       .  A
C1279      C1738   1.411       .  A
C1280      C1281   1.408       .  A
C1281      C1282   1.412       .  A
C1281      C1288   1.443       .  S
C1282      C1737   1.403       .  A
C1283      C1736   1.403       .  A
C1283      C1284   1.390   1_565  A
C1283      H1286   1.084   1_565  S
C1284      C1733   1.411   1_545  A
C1284      C1287   1.446       .  S
C1287      N1289   1.157       .  T
C1288      N1290   1.157       .  T
C1291      C1292   1.405       .  A
C1291      C1296   1.413       .  A
C1292      C1293   1.397       .  A
C1292      H1751   1.085       .  S
C1293      C1294   1.414       .  A
C1293      C1754   1.446       .  S
C1294      C1295   1.408       .  A
C1295      C1296   1.409       .  A
C1295      H1298   1.085       .  S
C1296      C1299   1.443       .  S
H1297      C1746   1.085       .  S
C1299      N1301   1.157       .  T
C1300      C1747   1.446       .  S
C1300      N1302   1.157       .  T
C1303      C1304   1.402       .  A
C1303      C1308   1.422       .  A
C1304      C1305   1.406       .  A
C1304      H1763   1.083       .  S
C1305      C1306   1.418       .  A
C1305      C1766   1.442       .  S
C1306      C1307   1.397       .  A
C1307      C1308   1.387       .  A
C1307      H1310   1.086       .  S
C1308      C1311   1.448       .  S
H1309      C1758   1.083   1_545  S
C1311      N1313   1.157       .  T
C1312      C1759   1.442   1_545  S
C1312      N1314   1.157       .  T
C1315      C1316   1.400       .  A
C1315      C1320   1.417       .  A
C1316      C1317   1.391       .  A
C1316      H1321   1.085       .  S
C1317      C1318   1.421       .  A
C1317      C1324   1.446       .  S
C1318      C1319   1.405       .  A
C1319      C1320   1.408       .  A
C1319      H1322   1.082       .  S
C1323      N1325   1.157       .  T
C1324      N1326   1.158       .  T
C1327      C1328   1.408       .  A
C1327      C1332   1.412       .  A
C1328      C1329   1.407       .  A
C1328      H1333   1.085       .  S
C1329      C1330   1.413       .  A
C1329      C1336   1.443   1_556  S
C1330      C1331   1.405       .  A
C1331      C1332   1.395       .  A
C1331      H1334   1.085       .  S
C1332      C1335   1.446       .  S
C1335      N1337   1.157       .  T
C1336      N1338   1.157       .  T
C1339      C1340   1.399       .  A
C1339      C1344   1.415       .  A
C1340      C1341   1.388       .  A
C1340      H1345   1.086       .  S
C1341      C1342   1.418       .  A
C1341      C1348   1.446       .  S
C1342      C1343   1.406       .  A
C1343      C1344   1.408       .  A
C1343      H1346   1.085       .  S
C1344      C1347   1.443       .  S
C1347      N1349   1.157       .  T
C1348      N1350   1.158       .  T
C1351      C1352   1.408       .  A
C1351      C1356   1.424       .  A
C1352      C1353   1.408       .  A
C1352      H1357   1.084       .  S
C1353      C1354   1.410       .  A
C1353      C1360   1.439       .  S
C1354      C1355   1.397       .  A
C1355      C1356   1.396       .  A
C1355      H1358   1.086       .  S
C1356      C1359   1.446       .  S
C1359      N1361   1.158       .  T
C1360      N1362   1.156       .  T
C1363      N1364   1.367       .  A
C1363      N1368   1.353       .  A
C1363      C1578   1.497       .  S
N1364      C1365   1.368       .  A
C1365      N1366   1.360       .  A
C1365      C1373   1.469       .  S
N1366      C1367   1.350       .  A
C1367      N1368   1.351       .  A
C1367      C1566   1.480       .  S
C1369      N1370   1.356       .  A
C1369      N1601   1.363       .  A
C1369      C1557   1.485       .  S
N1370      C1371   1.354       .  A
C1371      N1599   1.352       .  A
C1371      C1542   1.488       .  S
N1372      C1598   1.352   1_554  A
N1372      C1373   1.361       .  A
C1373      N1374   1.364       .  A
N1374      C1596   1.363   1_554  A
C1375      N1376   1.365       .  A
C1375      N1380   1.356       .  A
C1375      C1518   1.487       .  S
N1376      C1377   1.366       .  A
C1377      N1378   1.358       .  A
C1377      C1383   1.468       .  S
N1378      C1379   1.350       .  A
C1379      N1380   1.354       .  A
C1379      C1533   1.481       .  S
C1381      N1609   1.365       .  A
C1381      N1386   1.352       .  A
C1381      C1497   1.494       .  S
N1382      C1608   1.365   1_554  A
N1382      C1383   1.365       .  A
C1383      N1384   1.362       .  A
N1384      C1612   1.352   1_554  A
C1385      N1611   1.352       .  A
C1385      N1386   1.349       .  A
C1385      C1506   1.480       .  S
C1387      N1388   1.354       .  A
C1387      N1392   1.361       .  A
C1387      C1485   1.482       .  S
N1388      C1389   1.355       .  A
C1389      N1390   1.355       .  A
C1389      C1470   1.490       .  S
N1390      C1391   1.361       .  A
C1391      N1392   1.364       .  A
C1391      C1395   1.469       .  S
C1393      N1621   1.360       .  A
C1393      N1398   1.357       .  A
C1393      C1458   1.478       .  S
N1394      C1620   1.360   1_554  A
N1394      C1395   1.362       .  A
C1395      N1396   1.360       .  A
N1396      C1624   1.355   1_554  A
C1397      N1623   1.355       .  A
C1397      N1398   1.358       .  A
C1397      C1446   1.490       .  S
O1399     Mn1425   2.089       .  S
C1400      C1554   1.482       .  S
C1400      O1433   1.271       .  A
C1400      O1430   1.266       .  A
O1401     Mn1408   2.164       .  S
O1401     Mn1419   2.107       .  S
O1401     Mn1423   2.186       .  S
O1402     Mn1436   2.112       .  S
O1402      C1412   1.274       .  A
O1403     Mn1419   2.105       .  S
O1403      C1426   1.270       .  A
O1404     Mn1423   2.126       .  S
O1404      C1431   1.255       .  A
O1405     Mn1425   1.945       .  S
O1405      C1421   1.210       .  S
C1406      C1530   1.480       .  S
C1406      O1409   1.258       .  A
C1406      O1432   1.233       .  A
O1407     Mn1408   2.185       .  S
O1407     Mn1441   2.112       .  S
O1407     Mn1423   2.184       .  S
Mn1408     O1413   2.136       .  S
O1410     Mn1417   2.088       .  S
O1410      C1412   1.270       .  A
C1411      C1509   1.480       .  S
C1411      O1437   1.252       .  A
C1411      O1424   1.217       .  S
C1412      C1581   1.478       .  S
O1413      C1438   1.256       .  A
O1414     Mn1417   2.114       .  S
O1414     Mn1436   2.105       .  S
O1415     Mn1419   1.956       .  S
O1415     Mn1441   1.940       .  S
O1415      C1438   1.211       .  S
C1416      C1482   1.485       .  S
C1416      O1418   1.268       .  A
Mn1417     O1430   2.084       .  S
O1418     Mn1441   2.075       .  S
Mn1419     O1435   2.087       .  S
Mn1419     O1429   1.942       .  S
O1420     Mn1425   2.104       .  S
C1421      C1473   1.491       .  S
C1421      O1439   1.257       .  A
C1422      C1494   1.472       .  S
C1422      O1435   1.270       .  A
O1424     Mn1427   1.978       .  S
Mn1425     O1443   1.951       .  S
C1426      C1521   1.486       .  S
Mn1427     O1434   2.077       .  S
Mn1427     O1442   2.126       .  S
Mn1427     O1432   2.015       .  S
C1428      C1461   1.492       .  S
C1428      O1444   1.273       .  A
O1429     Mn1441   1.947       .  S
O1429      C1431   1.212       .  S
C1431      C1569   1.482       .  S
O1433     Mn1436   2.099       .  S
C1438      C1545   1.489       .  S
O1440      C1445   1.258       .  A
Mn1441     O1444   2.109       .  S
O1443      C1445   1.211       .  S
C1445      C1449   1.490       .  S
C1446      C1451   1.418       .  A
C1447      C1448   1.395       .  A
C1447      H1452   1.085       .  S
C1448      C1455   1.445       .  S
C1449      C1450   1.402       .  A
C1450      C1451   1.406       .  A
C1450      H1453   1.078       .  S
C1451      C1454   1.444       .  S
C1454      N1683   1.157       .  T
C1455      N1457   1.157       .  T
N1456      C1681   1.157       .  T
C1458      C1463   1.410       .  A
C1459      C1460   1.398       .  A
C1459      H1464   1.086       .  S
C1460      C1467   1.445       .  S
C1461      C1462   1.409       .  A
C1462      C1463   1.405       .  A
C1462      H1465   1.085       .  S
C1463      C1466   1.443       .  S
C1466      N1468   1.157       .  T
C1467      N1469   1.157       .  T
C1470      C1471   1.401       .  A
C1471      C1472   1.391       .  A
C1471      H1476   1.084       .  S
C1472      C1473   1.421       .  A
C1472      C1479   1.446       .  S
C1474      C1475   1.407       .  A
C1474      H1477   1.080       .  S
C1475      C1478   1.443       .  S
C1478      N1480   1.157       .  T
C1479      N1481   1.157       .  T
C1482      C1483   1.404       .  A
C1483      C1484   1.397       .  A
C1483      H1488   1.085       .  S
C1484      C1485   1.413       .  A
C1484      C1491   1.445       .  S
C1486      C1487   1.406       .  A
C1486      H1489   1.085       .  S
C1487      C1490   1.436       .  S
C1490      N1492   1.155       .  T
C1491      N1493   1.157       .  T
C1494      C1495   1.395       .  A
C1494      C1499   1.408       .  A
C1495      C1496   1.394       .  A
C1495      H1500   1.086       .  S
C1496      C1497   1.424       .  A
C1496      C1503   1.446       .  S
C1497      C1498   1.409       .  A
C1498      C1499   1.406       .  A
C1502      N1504   1.156       .  T
C1503      N1505   1.158       .  T
C1506      C1507   1.408       .  A
C1507      C1508   1.408       .  A
C1507      H1739   1.084       .  S
C1508      C1509   1.412       .  A
C1508      C1515   1.443       .  S
C1510      C1511   1.390       .  A
C1510      H1513   1.084       .  S
C1511      C1514   1.446       .  S
H1512      C1734   1.084   1_554  S
C1514      N1516   1.157       .  T
C1515      N1517   1.157       .  T
C1518      C1519   1.405   1_565  A
C1518      C1523   1.413       .  A
C1519      C1520   1.397       .  A
C1520      C1521   1.414   1_545  A
C1521      C1522   1.408       .  A
C1522      C1523   1.409       .  A
C1522      H1525   1.085       .  S
C1523      C1526   1.443       .  S
C1526      N1528   1.157       .  T
C1527      N1529   1.157       .  T
C1530      C1531   1.402       .  A
C1530      C1535   1.422       .  A
C1531      C1532   1.406       .  A
C1532      C1533   1.418       .  A
C1533      C1534   1.397       .  A
C1534      C1535   1.387       .  A
C1534      H1537   1.086       .  S
C1535      C1538   1.448       .  S
C1538      N1540   1.157       .  T
C1539      N1541   1.157       .  T
C1542      C1543   1.400       .  A
C1542      C1547   1.417       .  A
C1543      C1544   1.391       .  A
C1543      H1548   1.085       .  S
C1544      C1545   1.421       .  A
C1544      C1551   1.446       .  S
C1545      C1546   1.405       .  A
C1546      C1547   1.408       .  A
C1546      H1549   1.082       .  S
C1547      C1777   1.443       .  S
C1550      C1774   1.443   1_554  S
C1550      N1552   1.157       .  T
C1551      N1553   1.158       .  T
C1554      C1555   1.408       .  A
C1554      C1559   1.412       .  A
C1555      C1556   1.407       .  A
C1555      H1560   1.085       .  S
C1556      C1557   1.413       .  A
C1556      C1563   1.443       .  S
C1557      C1558   1.405       .  A
C1558      C1559   1.395       .  A
C1558      H1561   1.085       .  S
C1559      C1562   1.446       .  S
C1562      N1564   1.157       .  T
C1563      N1565   1.157       .  T
C1566      C1567   1.399       .  A
C1566      C1571   1.415       .  A
C1567      C1568   1.388       .  A
C1567      H1572   1.086       .  S
C1568      C1569   1.418       .  A
C1568      C1575   1.446       .  S
C1569      C1570   1.406       .  A
C1570      C1571   1.408       .  A
C1570      H1573   1.085       .  S
C1571      C1574   1.444       .  S
C1574      N1576   1.157       .  T
C1575      N1577   1.158       .  T
C1578      C1579   1.408       .  A
C1578      C1583   1.424       .  A
C1579      C1580   1.408       .  A
C1579      H1584   1.084       .  S
C1580      C1581   1.410       .  A
C1580      C1587   1.439       .  S
C1581      C1582   1.397       .  A
C1582      C1583   1.396       .  A
C1582      H1585   1.086       .  S
C1583      C1586   1.446       .  S
C1586      N1588   1.158       .  T
C1587      N1589   1.156       .  T
C1590      N1591   1.367       .  A
C1590      N1595   1.353       .  A
C1590      C1805   1.497       .  S
N1591      C1592   1.368       .  A
C1592      N1593   1.360       .  A
C1592      C1600   1.469       .  S
N1593      C1594   1.350       .  A
C1594      N1595   1.351       .  A
C1594      C1793   1.480       .  S
C1596      N1597   1.356       .  A
C1596      C1784   1.485       .  S
N1597      C1598   1.354       .  A
C1598      C1769   1.488       .  S
N1599      C1600   1.361       .  A
C1600      N1601   1.364       .  A
C1602      N1603   1.365       .  A
C1602      N1607   1.356       .  A
C1602      C1745   1.487       .  S
N1603      C1604   1.366       .  A
C1604      N1605   1.358       .  A
C1604      C1610   1.468       .  S
N1605      C1606   1.350       .  A
C1606      N1607   1.354       .  A
C1606      C1760   1.481       .  S
C1608      N1613   1.352       .  A
C1608      C1724   1.494       .  S
N1609      C1610   1.365       .  A
C1610      N1611   1.362       .  A
C1612      N1613   1.349       .  A
C1612      C1733   1.480       .  S
C1614      N1615   1.354       .  A
C1614      N1619   1.361       .  A
C1614      C1712   1.482       .  S
N1615      C1616   1.355       .  A
C1616      N1617   1.355       .  A
C1616      C1697   1.490       .  S
N1617      C1618   1.361       .  A
C1618      N1619   1.364       .  A
C1618      C1622   1.469       .  S
C1620      N1625   1.357       .  A
C1620      C1685   1.478       .  S
N1621      C1622   1.362       .  A
C1622      N1623   1.360       .  A
C1624      N1625   1.358       .  A
C1624      C1673   1.490       .  S
O1626     Mn1652   2.089       .  S
C1627      C1781   1.482       .  S
C1627      O1660   1.271       .  A
C1627      O1657   1.266       .  A
O1628     Mn1635   2.164       .  S
O1628     Mn1646   2.107       .  S
O1628     Mn1650   2.186       .  S
O1629     Mn1663   2.112       .  S
O1629      C1639   1.274       .  A
O1630     Mn1646   2.105       .  S
O1630      C1653   1.270       .  A
O1631     Mn1650   2.126       .  S
O1631      C1658   1.255       .  A
O1632     Mn1652   1.945       .  S
O1632      C1648   1.210       .  S
C1633      C1757   1.480       .  S
C1633      O1636   1.258       .  A
C1633      O1659   1.233       .  A
O1634     Mn1635   2.185       .  S
O1634     Mn1668   2.112       .  S
O1634     Mn1650   2.184       .  S
Mn1635     O1640   2.136       .  S
O1637     Mn1644   2.088       .  S
O1637      C1639   1.270       .  A
C1638      C1736   1.480       .  S
C1638      O1664   1.252       .  A
C1638      O1651   1.217       .  S
C1639      C1808   1.478       .  S
O1640      C1665   1.256       .  A
O1641     Mn1644   2.114       .  S
O1641     Mn1663   2.105       .  S
O1642     Mn1646   1.956       .  S
O1642     Mn1668   1.940       .  S
O1642      C1665   1.211       .  S
C1643      C1709   1.485       .  S
C1643      O1645   1.268       .  A
Mn1644     O1657   2.084       .  S
O1645     Mn1668   2.075       .  S
Mn1646     O1662   2.087       .  S
Mn1646     O1656   1.942       .  S
O1647     Mn1652   2.104       .  S
C1648      C1700   1.491       .  S
C1648      O1666   1.257       .  A
C1649      C1721   1.472       .  S
C1649      O1662   1.270       .  A
O1651     Mn1654   1.978       .  S
Mn1652     O1670   1.951       .  S
C1653      C1748   1.486       .  S
Mn1654     O1661   2.077       .  S
Mn1654     O1669   2.126       .  S
Mn1654     O1659   2.015       .  S
C1655      C1688   1.492       .  S
C1655      O1671   1.273       .  A
O1656     Mn1668   1.947       .  S
O1656      C1658   1.212       .  S
C1658      C1796   1.482       .  S
O1660     Mn1663   2.099       .  S
C1665      C1772   1.489       .  S
O1667      C1672   1.258       .  A
Mn1668     O1671   2.109       .  S
O1670      C1672   1.211       .  S
C1672      C1676   1.490       .  S
C1673      C1678   1.418       .  A
C1674      C1675   1.395       .  A
C1674      H1679   1.085       .  S
C1675      C1682   1.445       .  S
C1676      C1677   1.402       .  A
C1677      C1678   1.406       .  A
C1677      H1680   1.078       .  S
C1678      C1681   1.444   1_556  S
C1682      N1684   1.157       .  T
C1685      C1690   1.410       .  A
C1686      C1687   1.398       .  A
C1686      H1691   1.086       .  S
C1687      C1694   1.445       .  S
C1688      C1689   1.409       .  A
C1689      C1690   1.405       .  A
C1689      H1692   1.085       .  S
C1690      C1693   1.443       .  S
C1693      N1695   1.157   1_556  T
C1694      N1696   1.157       .  T
C1697      C1698   1.401       .  A
C1698      C1699   1.391       .  A
C1698      H1703   1.084       .  S
C1699      C1700   1.421       .  A
C1699      C1706   1.446       .  S
C1701      C1702   1.407       .  A
C1701      H1704   1.080       .  S
C1702      C1705   1.443       .  S
C1705      N1707   1.157       .  T
C1706      N1708   1.157       .  T
C1709      C1710   1.404       .  A
C1710      C1711   1.397       .  A
C1710      H1715   1.085       .  S
C1711      C1712   1.413       .  A
C1711      C1718   1.445       .  S
C1713      C1714   1.406       .  A
C1713      H1716   1.085       .  S
C1714      C1717   1.436       .  S
C1717      N1719   1.155       .  T
C1718      N1720   1.157       .  T
C1721      C1722   1.395       .  A
C1721      C1726   1.408       .  A
C1722      C1723   1.394       .  A
C1722      H1727   1.086       .  S
C1723      C1724   1.424       .  A
C1723      C1730   1.446       .  S
C1724      C1725   1.409       .  A
C1725      C1726   1.406       .  A
C1729      N1731   1.156       .  T
C1730      N1732   1.158       .  T
C1733      C1734   1.408       .  A
C1734      C1735   1.408       .  A
C1735      C1736   1.412       .  A
C1735      C1742   1.443       .  S
C1737      C1738   1.390       .  A
C1737      H1740   1.084       .  S
C1738      C1741   1.446       .  S
C1741      N1743   1.157       .  T
C1742      N1744   1.157       .  T
C1745      C1746   1.405   1_565  A
C1745      C1750   1.413       .  A
C1746      C1747   1.397       .  A
C1747      C1748   1.414   1_545  A
C1748      C1749   1.408       .  A
C1749      C1750   1.409       .  A
C1749      H1752   1.085       .  S
C1750      C1753   1.443       .  S
C1753      N1755   1.157       .  T
C1754      N1756   1.157       .  T
C1757      C1758   1.402       .  A
C1757      C1762   1.422       .  A
C1758      C1759   1.406       .  A
C1759      C1760   1.418       .  A
C1760      C1761   1.397       .  A
C1761      C1762   1.387       .  A
C1761      H1764   1.086       .  S
C1762      C1765   1.448       .  S
C1765      N1767   1.157       .  T
C1766      N1768   1.157       .  T
C1769      C1770   1.400       .  A
C1769      C1774   1.417       .  A
C1770      C1771   1.391       .  A
C1770      H1775   1.085       .  S
C1771      C1772   1.421       .  A
C1771      C1778   1.446       .  S
C1772      C1773   1.405       .  A
C1773      C1774   1.408       .  A
C1773      H1776   1.082       .  S
C1777      N1779   1.157       .  T
C1778      N1780   1.158       .  T
C1781      C1782   1.408       .  A
C1781      C1786   1.412       .  A
C1782      C1783   1.407       .  A
C1782      H1787   1.085       .  S
C1783      C1784   1.413       .  A
C1783      C1790   1.443   1_556  S
C1784      C1785   1.405       .  A
C1785      C1786   1.395       .  A
C1785      H1788   1.085       .  S
C1786      C1789   1.446       .  S
C1789      N1791   1.157       .  T
C1790      N1792   1.157       .  T
C1793      C1794   1.399       .  A
C1793      C1798   1.415       .  A
C1794      C1795   1.388       .  A
C1794      H1799   1.086       .  S
C1795      C1796   1.418       .  A
C1795      C1802   1.446       .  S
C1796      C1797   1.406       .  A
C1797      C1798   1.408       .  A
C1797      H1800   1.085       .  S
C1798      C1801   1.443       .  S
C1801      N1803   1.157       .  T
C1802      N1804   1.158       .  T
C1805      C1806   1.408       .  A
C1805      C1810   1.424       .  A
C1806      C1807   1.408       .  A
C1806      H1811   1.084       .  S
C1807      C1808   1.410       .  A
C1807      C1814   1.439       .  S
C1808      C1809   1.397       .  A
C1809      C1810   1.396       .  A
C1809      H1812   1.086       .  S
C1810      C1813   1.446       .  S
C1813      N1815   1.158       .  T
C1814      N1816   1.156       .  T
