geometry optimzed in LAMMPS
_audit_creation_date              2020-11-30 
_audit_creation_method            'lammps2cif' 
_symmetry_space_group_name_H-M    'P1' 
_symmetry_Int_Tables_number       1 
_symmetry_cell_setting            triclinic 
loop_ 
_symmetry_equiv_pos_as_xyz 
  x,y,z 
_cell_length_a                    35.56466883 
_cell_length_b                    34.576228780821765 
_cell_length_c                    57.97675800625049 
_cell_angle_alpha                 92.60183010969466 
_cell_angle_beta                  93.80440472322651 
_cell_angle_gamma                 124.84387661158695 
loop_ 
_atom_site_label 
_atom_site_type_symbol 
_atom_site_fract_x 
_atom_site_fract_y 
_atom_site_fract_z 
_atom_site_charge 
N1          N  0.46661709  0.45005504  0.33014059    -0.02000
C2          C  0.48275112  0.46906571  0.35248658     0.00500
C3          C  0.53017356  0.49292621  0.35552128    -0.22300
C4          C  0.54317119  0.48661377  0.33470269    -0.22500
C5          C  0.50325176  0.45893626  0.31953175     0.00400
H6          H  0.55203671  0.50720947  0.37191299     0.14200
H7          H  0.57703738  0.49580651  0.33187692     0.14300
N8          N  0.35954004  0.53328108  0.26495545    -0.02000
C9          C  0.37008656  0.54838222  0.24340743     0.00500
C10         C  0.38445407  0.09371766  0.24258449    -0.22300
C11         C  0.38514071  0.10905177  0.26481147    -0.22500
C12         C  0.37099149  0.57252384  0.27884994     0.00400
H13         H  0.39395056  0.11445038  0.22787980     0.14200
H14         H  0.39370761  0.14366486  0.27064201     0.14300
N15         N  0.26104188  0.22530539  0.35590652    -0.02000
C16         C  0.24579950  0.22040969  0.37726564     0.00500
C17         C  0.23172558  0.24945147  0.38173347    -0.22300
C18         C  0.23816734  0.27342102  0.36267815    -0.22500
C19         C  0.25610890  0.25857959  0.34689737     0.00400
H20         H  0.21929632  0.25370210  0.39753316     0.14200
H21         H  0.23189000  0.30034554  0.36077589     0.14300
N22         N  0.33960425  0.36063664  0.31756926    -0.35200
N23         N  0.24769489  0.31608375  0.29493494    -0.55700
N24         N  0.27859662  0.40542868  0.27494832    -0.35200
N25         N  0.37209765  0.44697945  0.29534041    -0.55700
C26         C  0.31914429  0.31645828  0.32429918     0.28400
C27         C  0.38567514  0.38296534  0.32230489     0.28400
C28         C  0.23706052  0.37502289  0.26219659     0.28400
C29         C  0.30148329  0.44629499  0.26457370     0.28400
C30         C  0.23819028  0.28474185  0.31078324     0.37000
C31         C  0.20666252  0.30566841  0.28543611     0.37000
C32         C  0.41248460  0.46032612  0.30730032     0.37000
C33         C  0.37893697  0.48629998  0.28700804     0.37000
C34         C  0.35266313  0.31131836  0.33319548    -0.20500
C35         C  0.39427372  0.35307301  0.33232631    -0.20500
C36         C  0.23409901  0.39679670  0.24345349    -0.20500
C37         C  0.27344128  0.44217596  0.24553794    -0.20500
C38         C  0.19092896  0.25375735  0.31087316    -0.21500
C39         C  0.17109489  0.26599815  0.29441907    -0.21500
C40         C  0.44552351  0.50802328  0.30594236    -0.21500
C41         C  0.42433929  0.52440952  0.29308786    -0.21500
C42         C  0.27137647  0.28336374  0.32521079    -0.16900
C43         C  0.42050514  0.43034965  0.31933222    -0.16900
C44         C  0.34599338  0.48781780  0.27254456    -0.16900
C45         C  0.20045695  0.32997242  0.26806317    -0.16900
H46         H  0.34843831  0.28091540  0.33928681     0.16000
H47         H  0.42687631  0.36081176  0.33924962     0.16000
H48         H  0.20699088  0.38191237  0.22940809     0.16000
H49         H  0.27996039  0.46864082  0.23416276     0.16000
H50         H  0.17237628  0.22491650  0.32153636     0.14300
H51         H  0.13443681  0.24755269  0.29000034     0.14300
H52         H  0.48124540  0.52884656  0.31335180     0.14300
H53         H  0.44098742  0.55996887  0.28813531     0.14300
H54         H  0.32315225  0.37654260  0.31320033     0.27600
H55         H  0.28840583  0.40080847  0.29125387     0.27600
N56         N  0.15529186  0.30544425  0.25475848    -0.02000
C57         C  0.14140283  0.26995336  0.23786259     0.00500
C58         C  0.09449565  0.23610509  0.23655676    -0.22300
C59         C  0.07835761  0.25123555  0.25291762    -0.22500
C60         C  0.11585397  0.29416587  0.26362217     0.00400
H61         H  0.07357740  0.20640694  0.22338473     0.14200
H62         H  0.04242594  0.23550971  0.25486536     0.14300
N63         N  0.16812831  0.51910456  0.24955210    -0.02000
C64         C  0.17367082  0.52857522  0.22698071     0.00500
C65         C  0.21008078  0.07246044  0.22459086    -0.22300
C66         C  0.22828684  0.09236286  0.24696434    -0.22500
C67         C  0.20293262  0.55987585  0.26255112     0.00400
H68         H  0.22345420  0.08941833  0.20901830     0.14200
H69         H  0.25926852  0.12741633  0.25222523     0.14300
N70         N  0.46969964  0.25735292  0.36169282    -0.02000
C71         C  0.49293635  0.27157746  0.38357499     0.00500
C72         C  0.52760460  0.31973545  0.38548231    -0.22300
C73         C  0.52677590  0.33553961  0.36446737    -0.22500
C74         C  0.49145761  0.29711560  0.35000416     0.00400
H75         H  0.55257653  0.34125923  0.40033741     0.14200
H76         H  0.55215071  0.37048657  0.35962896     0.14300
N77         N  0.98577415  0.36328202  0.31920220    -0.35200
N78         N  0.04594520  0.31683792  0.29577396    -0.55700
N79         N  0.11153863  0.40102548  0.27120540    -0.35200
N80         N  0.05879348  0.43985174  0.27568018    -0.55700
C81         C  0.97507018  0.31988637  0.31220215     0.28400
C82         C  0.98132615  0.38189129  0.30000320     0.28400
C83         C  0.11577273  0.36652021  0.26295669     0.28400
C84         C  0.12854156  0.43427763  0.25590215     0.28400
C85         C  0.02789505  0.29725846  0.31539620     0.37000
C86         C  0.08200466  0.31414503  0.29389503     0.37000
C87         C  0.03434951  0.45530333  0.28385623     0.37000
C88         C  0.09573746  0.47735452  0.26754857     0.37000
C89         C  0.46099485  0.31007237  0.28824099    -0.20500
C90         C  0.46549495  0.34945863  0.28047942    -0.20500
C91         C  0.13284047  0.37669981  0.24173539    -0.20500
C92         C  0.14401438  0.42082860  0.23806886    -0.20500
C93         C  0.05394905  0.28367508  0.32631724    -0.21500
C94         C  0.08701606  0.29251849  0.31211587    -0.21500
C95         C  0.05476075  0.50221613  0.28002874    -0.21500
C96         C  0.09315035  0.51580114  0.26910479    -0.21500
C97         C  0.99232309  0.29801446  0.32467262    -0.16900
C98         C  0.00075769  0.43049955  0.29908750    -0.16900
C99         C  0.13083256  0.47651904  0.25813227    -0.16900
C100        C  0.10808075  0.32824687  0.27494390    -0.16900
H101        H  0.45341632  0.27965144  0.27732945     0.16000
H102        H  0.46122898  0.35499978  0.26254155     0.16000
H103        H  0.13599094  0.35411487  0.22983557     0.16000
H104        H  0.16032046  0.43929204  0.22344981     0.16000
H105        H  0.05126370  0.27120028  0.34328499     0.14300
H106        H  0.11353734  0.28669350  0.31559205     0.14300
H107        H  0.04379714  0.52447350  0.28520983     0.14300
H108        H  0.11630794  0.54984452  0.26292711     0.14300
H109        H  0.00216999  0.38215940  0.33546203     0.27600
H110        H  0.10143087  0.40384596  0.28733529     0.27600
N111        N  0.29097605  0.08082240  0.29957973    -0.35200
N112        N  0.37719006  0.13738383  0.33107816    -0.55700
N113        N  0.34304898  0.19125166  0.34751189    -0.35200
N114        N  0.25321793  0.12826319  0.31961068    -0.55700
C115        C  0.30754074  0.05420100  0.30097635     0.28400
C116        C  0.24503994  0.05095031  0.29348059     0.28400
C117        C  0.38550847  0.21567407  0.35982878     0.28400
C118        C  0.31889333  0.20652146  0.35663056     0.28400
C119        C  0.38719982  0.11266869  0.31708893     0.36800
C120        C  0.41806365  0.17670585  0.34066339     0.37000
C121        C  0.22318111  0.10511105  0.30009675     0.37000
C122        C  0.24989194  0.16393500  0.32675962     0.37000
C123        C  0.27177421  0.00692975  0.29587835    -0.20500
C124        C  0.23218490  0.00487156  0.29091554    -0.20500
C125        C  0.38828211  0.24649594  0.37706172    -0.20500
C126        C  0.34641640  0.24038582  0.37527146    -0.20500
C127        C  0.43437607  0.13486329  0.31889799    -0.21500
C128        C  0.45372461  0.17475948  0.33426177    -0.21500
C129        C  0.19986603  0.12538103  0.29521853    -0.21500
C130        C  0.21576247  0.16157964  0.31248794    -0.21500
C131        C  0.35446203  0.07297372  0.30112422    -0.16900
C132        C  0.21717898  0.06612294  0.28677954    -0.16900
C133        C  0.27711612  0.19838623  0.34598560    -0.16900
C134        C  0.42360518  0.21500722  0.35440553    -0.16900
H135        H  0.27577019  0.47888722  0.29642580     0.16000
H136        H  0.19980991  0.47471288  0.28707724     0.16000
H137        H  0.41800318  0.27239716  0.38908511     0.16000
H138        H  0.33933147  0.26255421  0.38495845     0.16000
H139        H  0.45291689  0.12381009  0.30992021     0.14300
H140        H  0.48981217  0.19924213  0.34003797     0.14300
H141        H  0.17438584  0.11559765  0.28075288     0.14300
H142        H  0.20431944  0.18428135  0.31377243     0.14300
H143        H  0.31074549  0.11756486  0.29941314     0.27600
H144        H  0.33381895  0.17078608  0.33180280     0.27600
Zn145      Zn  0.05554063  0.04927034  0.08254436     1.49700
Zn146      Zn  0.04609264  0.00243969  0.03402765     1.49400
Zn147      Zn  0.98139327  0.03995662  0.04519170     1.49100
Zn148      Zn  0.09228688  0.11584877  0.04365585     1.49500
O149        O  0.04337601  0.05179772  0.05063781    -1.82700
O150        O  0.05960910  0.99718292  0.08878017    -0.73300
O151        O  0.98910031  0.96402339  0.01127092    -0.73100
O152        O  0.45140872  0.03174327  0.07621292    -0.72700
O153        O  0.05276383  0.95928887  0.05527174    -0.73300
O154        O  0.00467167  0.03681487  0.09892287    -0.72900
O155        O  0.94278831  0.98518921  0.02041178    -0.73500
O156        O  0.06228133  0.14247757  0.02569119    -0.72900
O157        O  0.09793700  0.03376957  0.01355055    -0.73700
O158        O  0.98670534  0.09252356  0.02754940    -0.73100
O159        O  0.13167695  0.11133990  0.02137926    -0.73500
O160        O  0.13327682  0.16068116  0.07300974    -0.73400
O161        O  0.11170448  0.10729838  0.09824944    -0.73200
C162        C  0.05777821  0.96399697  0.07744394     0.78600
C163        C  0.95230469  0.96203757  0.00727907     0.79100
C164        C  0.46756194  0.03005569  0.09627295     0.78000
C165        C  0.02091067  0.12917033  0.02009595     0.78400
C166        C  0.12808744  0.07662179  0.01006812     0.79500
C167        C  0.13734537  0.14958500  0.09327775     0.78600
C168        C  0.47142006  0.19176535  0.43382940     0.17400
C169        C  0.45496012  0.15930109  0.45086332    -0.31700
C170        C  0.48669113  0.16753958  0.46989347     0.21800
C171        C  0.03319693  0.20192747  0.46935625     0.04000
C172        C  0.04914562  0.23060614  0.45118676    -0.21400
C173        C  0.51727886  0.22977977  0.43601884     0.13100
S174        S  0.43977789  0.19038391  0.40938770    -0.05000
C175        C  0.48924355  0.24192415  0.40252843    -0.08500
C176        C  0.52759998  0.25757615  0.41826371    -0.25100
S177        S  0.06840819  0.20382267  0.49140682    -0.02300
C178        C  0.02035650  0.15727283  0.50188098    -0.15800
C179        C  0.47890879  0.13952829  0.48780290    -0.13800
H180        H  0.41930579  0.12900864  0.44931159     0.21600
H181        H  0.08568853  0.25685611  0.45066754     0.17700
H182        H  0.56197977  0.28869471  0.41710435     0.20200
H183        H  0.44625129  0.11207200  0.99232196     0.13500
C184        C  0.09067109  0.94675269  0.17140888     0.17400
C185        C  0.05460377  0.92454420  0.15319277    -0.31700
C186        C  0.06605794  0.92442425  0.13040953     0.21800
C187        C  0.11084215  0.94258026  0.12608925     0.04000
C188        C  0.14839247  0.46506555  0.14553003    -0.21400
C189        C  0.13553254  0.96568348  0.16688805     0.13100
S190        S  0.08588553  0.96044704  0.19943320    -0.05000
C191        C  0.14666609  0.49571533  0.20581011    -0.08500
C192        C  0.16839912  0.49468095  0.18702194    -0.25100
S193        S  0.12002367  0.95039390  0.09760065    -0.02300
C194        C  0.06434393  0.93377870  0.09163562    -0.15800
C195        C  0.03882088  0.91718234  0.11050074    -0.13800
H196        H  0.02005325  0.91268744  0.15636017     0.21600
H197        H  0.18392838  0.48251218  0.14211251     0.17700
H198        H  0.20544331  0.51485735  0.18690598     0.20200
H199        H  0.00503755  0.91024780  0.11077383     0.13500
C200        C  0.19125767  0.21243051  0.15314304     0.17400
C201        C  0.19583774  0.21570122  0.17750549    -0.31700
C202        C  0.18733078  0.24574151  0.18937402     0.21800
C203        C  0.17749782  0.27346484  0.17752957     0.04000
C204        C  0.17484391  0.27167404  0.15321576    -0.21400
C205        C  0.18066229  0.23956984  0.14126812     0.13100
S206        S  0.18737421  0.16880895  0.13592738    -0.05000
C207        C  0.16863134  0.18533839  0.11263213    -0.08500
C208        C  0.16888844  0.22498978  0.11787418    -0.25100
S209        S  0.16083938  0.30151363  0.19445805    -0.02300
C210        C  0.16635324  0.27511731  0.21769915    -0.15800
C211        C  0.18097746  0.24657021  0.21247614    -0.13800
H212        H  0.20117522  0.19231815  0.18667318     0.21600
H213        H  0.16419199  0.29098426  0.14394074     0.17700
H214        H  0.15427392  0.23767504  0.10604584     0.20200
H215        H  0.18246771  0.22409236  0.22436724     0.13500
C216        C  0.17451262  0.09042637  0.45121534     0.17400
C217        C  0.17524059  0.09180134  0.42705284    -0.31700
C218        C  0.21067762  0.13387343  0.41891623     0.21800
C219        C  0.24518154  0.17178846  0.43422671     0.04000
C220        C  0.24516166  0.16991699  0.45831346    -0.21400
C221        C  0.20831055  0.12903823  0.46642188     0.13100
S222        S  0.12972846  0.04669062  0.46434727    -0.05000
C223        C  0.15540307  0.08194619  0.49037537    -0.08500
C224        C  0.19758667  0.12435757  0.48890313    -0.25100
S225        S  0.28041609  0.22218403  0.42154973    -0.02300
C226        C  0.24769262  0.19275946  0.39533681    -0.15800
C227        C  0.21225417  0.14561919  0.39645511    -0.13800
H228        H  0.14726218  0.06292567  0.41516925     0.21600
H229        H  0.27047577  0.20067313  0.47019617     0.17700
H230        H  0.21728147  0.15210529  0.50310920     0.20200
H231        H  0.18575057  0.12306127  0.38225601     0.13500
C232        C  0.42625476  0.00582006  0.15670076     0.17400
C233        C  0.42603106  0.00234227  0.18063901    -0.31700
C234        C  0.39368430  0.00485982  0.19166417     0.21800
C235        C  0.36175281  0.00901395  0.17915192     0.04000
C236        C  0.36120784  0.01133300  0.15488844    -0.21400
C237        C  0.39499748  0.01061282  0.14392338     0.13100
S238        S  0.46684450  0.00938491  0.14151265    -0.05000
C239        C  0.44307828  0.01880600  0.11735142    -0.08500
C240        C  0.40422557  0.01780261  0.12100508    -0.25100
S241        S  0.33045620  0.01905876  0.19630588    -0.02300
C242        C  0.36245870  0.52069489  0.22125744    -0.15800
C243        C  0.39340909  0.00991041  0.21530737    -0.13800
H244        H  0.45198948  0.00074323  0.19050012     0.21600
H245        H  0.33752186  0.01657937  0.14531218     0.17700
H246        H  0.38530539  0.02406317  0.10812237     0.20200
H247        H  0.41887206  0.01284623  0.22802530     0.13500
C248        C  0.40860220  0.44268625  0.44457774     0.17400
C249        C  0.40785151  0.45842264  0.42275179    -0.31700
C250        C  0.42361552  0.44468144  0.40472350     0.21800
C251        C  0.43637240  0.41395150  0.40796936     0.04000
C252        C  0.43503857  0.39653151  0.42939975    -0.21400
C253        C  0.42253688  0.41295851  0.44778804     0.13100
S254        S  0.90810777  0.97541026  0.46961597    -0.05000
C255        C  0.92520249  0.94474559  0.48441219    -0.08500
C256        C  0.43074551  0.40978338  0.47078716    -0.25100
S257        S  0.46164994  0.40739291  0.38576873    -0.02300
C258        C  0.45614952  0.44729177  0.37204443    -0.15800
C259        C  0.43464979  0.46381514  0.38386500    -0.13800
H260        H  0.90042759  0.48647460  0.42078026     0.21600
H261        H  0.44805490  0.37524033  0.43224481     0.17700
H262        H  0.44449040  0.39345977  0.97644063     0.20200
H263        H  0.43111951  0.49128329  0.37849752     0.13500
N264        N  0.46496559  0.44947064  0.82972305    -0.02000
C265        C  0.48052832  0.46891996  0.85203016     0.00500
C266        C  0.52792055  0.49272007  0.85545108    -0.22300
C267        C  0.54149197  0.48602029  0.83490335    -0.22500
C268        C  0.50193660  0.45817641  0.81950539     0.00400
H269        H  0.54935497  0.50726496  0.87196585     0.14200
H270        H  0.57548208  0.49517570  0.83242870     0.14300
N271        N  0.35867423  0.53294690  0.76409779    -0.02000
C272        C  0.36896846  0.54803049  0.74254572     0.00500
C273        C  0.38363706  0.09415450  0.74274620    -0.22300
C274        C  0.38406195  0.10911942  0.76500597    -0.22500
C275        C  0.36968344  0.57198092  0.77796328     0.00400
H276        H  0.39321254  0.11512921  0.72813096     0.14200
H277        H  0.39253885  0.14364185  0.77095815     0.14300
N278        N  0.25957833  0.22542713  0.85507968    -0.02000
C279        C  0.24474767  0.22151202  0.87649726     0.00500
C280        C  0.23070390  0.25069309  0.88059168    -0.22300
C281        C  0.23681386  0.27380698  0.86125233    -0.22500
C282        C  0.25453688  0.25832492  0.84567823     0.00400
H283        H  0.21861216  0.25568877  0.89634692     0.14200
H284        H  0.23059993  0.30070666  0.85904517     0.14300
N285        N  0.33816640  0.35992838  0.81652928    -0.35200
N286        N  0.24650208  0.31542864  0.79357517    -0.55700
N287        N  0.27757915  0.40509520  0.77390018    -0.35200
N288        N  0.37091065  0.44650351  0.79451030    -0.55700
C289        C  0.31762860  0.31555232  0.82298428     0.28400
C290        C  0.38419669  0.38223693  0.82136635     0.28400
C291        C  0.23607309  0.37489839  0.76112096     0.28400
C292        C  0.30049435  0.44611305  0.76367635     0.28400
C293        C  0.23680948  0.28389642  0.80933478     0.37000
C294        C  0.20554046  0.30509930  0.78402937     0.37000
C295        C  0.41119915  0.45978870  0.80655615     0.37000
C296        C  0.37788420  0.48585412  0.78615232     0.37000
C297        C  0.35105515  0.31019068  0.83177148    -0.20500
C298        C  0.39267899  0.35213268  0.83122536    -0.20500
C299        C  0.23311443  0.39697681  0.74252622    -0.20500
C300        C  0.27245735  0.44232654  0.74473306    -0.20500
C301        C  0.18952400  0.25288820  0.80931248    -0.21500
C302        C  0.16985376  0.26526540  0.79284790    -0.21500
C303        C  0.44431889  0.50747893  0.80522809    -0.21500
C304        C  0.42328417  0.52390840  0.79228053    -0.21500
C305        C  0.26986284  0.28250442  0.82385217    -0.16900
C306        C  0.41906788  0.42972307  0.81859764    -0.16900
C307        C  0.34504619  0.48747453  0.77166205    -0.16900
C308        C  0.19948353  0.32972354  0.76680912    -0.16900
H309        H  0.34675124  0.27946110  0.83748734     0.16000
H310        H  0.42519671  0.35983099  0.83824223     0.16000
H311        H  0.20601108  0.38230846  0.72849708     0.16000
H312        H  0.27896818  0.46899735  0.73350155     0.16000
H313        H  0.17084434  0.22403238  0.81994964     0.14300
H314        H  0.13321807  0.24689254  0.78835602     0.14300
H315        H  0.48001383  0.52824225  0.81267892     0.14300
H316        H  0.44002544  0.55943452  0.78727503     0.14300
H317        H  0.32171028  0.37595897  0.81231408     0.27600
H318        H  0.28737542  0.40018571  0.79015767     0.27600
N319        N  0.15448194  0.30534903  0.75339816    -0.02000
C320        C  0.14085990  0.27027423  0.73634380     0.00500
C321        C  0.09389358  0.23652091  0.73471620    -0.22300
C322        C  0.07748701  0.25132582  0.75108737    -0.22500
C323        C  0.11490999  0.29396352  0.76208718     0.00400
H324        H  0.07318480  0.20714499  0.72136398     0.14200
H325        H  0.04150112  0.23565991  0.75285404     0.14300
N326        N  0.16752739  0.51910496  0.74838725    -0.02000
C327        C  0.17320993  0.52884661  0.72584953     0.00500
C328        C  0.20894186  0.07184446  0.72461234    -0.22300
C329        C  0.22694259  0.09154786  0.74702169    -0.22500
C330        C  0.20209290  0.55987671  0.76150052     0.00400
H331        H  0.22235907  0.08902185  0.70909452     0.14200
H332        H  0.25777095  0.12665649  0.75237803     0.14300
N333        N  0.46782178  0.25641250  0.86195270    -0.02000
C334        C  0.49045061  0.26980379  0.88390549     0.00500
C335        C  0.52563172  0.31775647  0.88623871    -0.22300
C336        C  0.52550917  0.33440530  0.86535465    -0.22500
C337        C  0.49023568  0.29651087  0.85057405     0.00400
H338        H  0.55073020  0.33818015  0.90121976     0.14200
H339        H  0.55145683  0.36937414  0.86075449     0.14300
N340        N  0.98686557  0.36387165  0.81894382    -0.35200
N341        N  0.04567087  0.31657049  0.79482130    -0.55700
N342        N  0.11072872  0.40079647  0.76980656    -0.35200
N343        N  0.05811099  0.43947002  0.77441800    -0.55700
C344        C  0.97580373  0.32021828  0.81213654     0.28400
C345        C  0.98176685  0.38197018  0.79968139     0.28400
C346        C  0.11467094  0.36616307  0.76145510     0.28400
C347        C  0.12779596  0.43411523  0.75453754     0.28400
C348        C  0.02860674  0.29752253  0.81469906     0.37000
C349        C  0.08179111  0.31412256  0.79261889     0.37000
C350        C  0.03364988  0.45480740  0.78268581     0.37000
C351        C  0.09486976  0.47699896  0.76617638     0.37000
C352        C  0.46089575  0.30946955  0.78869205    -0.20500
C353        C  0.46519785  0.34867006  0.78080913    -0.20500
C354        C  0.13155992  0.37629595  0.74018592    -0.20500
C355        C  0.14298772  0.42055547  0.73660645    -0.20500
C356        C  0.05537752  0.28457941  0.82541814    -0.21500
C357        C  0.08783591  0.29321897  0.81086421    -0.21500
C358        C  0.05375505  0.50161529  0.77869465    -0.21500
C359        C  0.09208087  0.51531259  0.76768854    -0.21500
C360        C  0.99359336  0.29859276  0.82445811    -0.16900
C361        C  0.00107560  0.43051769  0.79844963    -0.16900
C362        C  0.13013145  0.47637043  0.75683618    -0.16900
C363        C  0.10719841  0.32799214  0.77344914    -0.16900
H364        H  0.45355356  0.27905508  0.77787116     0.16000
H365        H  0.46102085  0.35407307  0.76283568     0.16000
H366        H  0.13460717  0.35367706  0.72824209     0.16000
H367        H  0.15925052  0.43901548  0.72197971     0.16000
H368        H  0.05380172  0.27301293  0.84253633     0.14300
H369        H  0.11478658  0.28796880  0.81416560     0.14300
H370        H  0.04284183  0.52386194  0.78398648     0.14300
H371        H  0.11521087  0.54942773  0.76155077     0.14300
H372        H  0.00389434  0.38322457  0.83503884     0.27600
H373        H  0.10080825  0.40364896  0.78598864     0.27600
N374        N  0.28934778  0.07988822  0.79964890    -0.35200
N375        N  0.37547397  0.13661475  0.83116034    -0.55700
N376        N  0.34117803  0.19059672  0.84739964    -0.35200
N377        N  0.25139008  0.12736641  0.81948472    -0.55700
C378        C  0.30608185  0.05341491  0.80098518     0.28400
C379        C  0.24342779  0.04990418  0.79353885     0.28400
C380        C  0.38373324  0.21534699  0.85962310     0.28400
C381        C  0.31725534  0.20644324  0.85620184     0.28400
C382        C  0.38563549  0.11198338  0.81721182     0.36800
C383        C  0.41627573  0.17597078  0.84078320     0.37000
C384        C  0.22131830  0.10392423  0.80000466     0.37000
C385        C  0.24805048  0.16313007  0.82643591     0.37000
C386        C  0.27044457  0.00611238  0.79582368    -0.20500
C387        C  0.23075678  0.00389088  0.79089415    -0.20500
C388        C  0.38676869  0.24692290  0.87649171    -0.20500
C389        C  0.34501827  0.24102538  0.87454317    -0.20500
C390        C  0.43282933  0.13427745  0.81908304    -0.21500
C391        C  0.45203610  0.17414050  0.83444329    -0.21500
C392        C  0.19794958  0.12407867  0.79497356    -0.21500
C393        C  0.21385552  0.16050588  0.81209429    -0.21500
C394        C  0.35305513  0.07239532  0.80115807    -0.16900
C395        C  0.21550280  0.06495944  0.78676029    -0.16900
C396        C  0.27543823  0.19806324  0.84547563    -0.16900
C397        C  0.42173862  0.21434464  0.85440542    -0.16900
H398        H  0.27428573  0.47814020  0.79566703     0.16000
H399        H  0.19854454  0.47435912  0.78614045     0.16000
H400        H  0.41662319  0.27323097  0.88833482     0.16000
H401        H  0.33814260  0.26368700  0.88391608     0.16000
H402        H  0.45148963  0.12337980  0.81010765     0.14300
H403        H  0.48812247  0.19880656  0.84017260     0.14300
H404        H  0.17252177  0.11417412  0.78046583     0.14300
H405        H  0.20242504  0.18322306  0.81320702     0.14300
H406        H  0.30901211  0.11662854  0.79949357     0.27600
H407        H  0.33167886  0.16936795  0.83193505     0.27600
Zn408      Zn  0.05674898  0.04993445  0.58294443     1.49700
Zn409      Zn  0.04494406  0.00171693  0.53406242     1.49400
Zn410      Zn  0.98359183  0.04326334  0.54587461     1.49100
Zn411      Zn  0.09482510  0.11492011  0.54365882     1.49500
O412        O  0.04443971  0.05224052  0.55101109    -1.82700
O413        O  0.06171239  0.99828330  0.58879079    -0.73300
O414        O  0.98785142  0.96520439  0.51135266    -0.73100
O415        O  0.44970752  0.03053421  0.57604178    -0.72700
O416        O  0.05034355  0.95788236  0.55522574    -0.73300
O417        O  0.00551228  0.03654067  0.59954765    -0.72900
O418        O  0.94411930  0.98964619  0.52056594    -0.73500
O419        O  0.06611101  0.14123560  0.52498867    -0.72900
O420        O  0.09644542  0.03093319  0.51325838    -0.73700
O421        O  0.99085851  0.09738227  0.52849060    -0.73100
O422        O  0.13363684  0.10881911  0.52167239    -0.73500
O423        O  0.13601391  0.16070579  0.57256332    -0.73400
O424        O  0.11279126  0.10847329  0.59850735    -0.73200
C425        C  0.05776304  0.96393089  0.57736250     0.78600
C426        C  0.95235620  0.96552820  0.50728990     0.79100
C427        C  0.46565177  0.02909462  0.59622215     0.78000
C428        C  0.02580683  0.13113666  0.51987005     0.78400
C429        C  0.12812429  0.07341704  0.51000490     0.79500
C430        C  0.13931245  0.15033421  0.59309793     0.78600
C431        C  0.47002664  0.19182413  0.93447231     0.17400
C432        C  0.45401783  0.16215613  0.95269493    -0.31700
C433        C  0.48723327  0.16810237  0.97016433     0.21800
C434        C  0.02373778  0.20928459  0.97560699     0.04000
C435        C  0.03863973  0.24535538  0.96105951    -0.21400
C436        C  0.51684653  0.22485798  0.93397561     0.13100
S437        S  0.43670925  0.19325510  0.91186049    -0.05000
C438        C  0.48687993  0.23902405  0.90208556    -0.08500
C439        C  0.52650069  0.25093368  0.91553931    -0.25100
S440        S  0.05551012  0.21377074  0.00027557    -0.02300
C441        C  0.01304256  0.15556407  0.00329681    -0.15800
C442        C  0.47975547  0.14207259  0.98891838    -0.13800
H443        H  0.41753893  0.13582474  0.95325896     0.21600
H444        H  0.07131864  0.27945751  0.96545036     0.17700
H445        H  0.56124457  0.27894171  0.91248040     0.20200
H446        H  0.44643087  0.10610783  0.48922236     0.13500
C447        C  0.09020007  0.94635679  0.67115679     0.17400
C448        C  0.05424262  0.92409127  0.65288947    -0.31700
C449        C  0.06590378  0.92424231  0.63013684     0.21800
C450        C  0.11080787  0.94279304  0.62589354     0.04000
C451        C  0.14835991  0.46529897  0.64435278    -0.21400
C452        C  0.13517069  0.96567134  0.66670288     0.13100
S453        S  0.08509306  0.95959089  0.69919147    -0.05000
C454        C  0.14644614  0.49614387  0.70459793    -0.08500
C455        C  0.16833365  0.49549179  0.68579040    -0.25100
S456        S  0.12013327  0.95072065  0.59744523    -0.02300
C457        C  0.06429552  0.93356903  0.59137894    -0.15800
C458        C  0.03867241  0.91678284  0.61018870    -0.13800
H459        H  0.01957969  0.91190599  0.65600492     0.21600
H460        H  0.18391311  0.48317189  0.64088327     0.17700
H461        H  0.20539274  0.51608193  0.68564951     0.20200
H462        H  0.00477028  0.90958043  0.61039805     0.13500
C463        C  0.19383486  0.21453719  0.65252262     0.17400
C464        C  0.19820215  0.21799998  0.67687216    -0.31700
C465        C  0.18908520  0.24770517  0.68852593     0.21800
C466        C  0.17907487  0.27513031  0.67650584     0.04000
C467        C  0.17684319  0.27333087  0.65220663    -0.21400
C468        C  0.18305625  0.24135453  0.64045850     0.13100
S469        S  0.18999131  0.17067123  0.63557557    -0.05000
C470        C  0.17095726  0.18660074  0.61215877    -0.08500
C471        C  0.17117754  0.22630502  0.61712329    -0.25100
S472        S  0.16129612  0.30242616  0.69313437    -0.02300
C473        C  0.16646649  0.27597127  0.71643267    -0.15800
C474        C  0.18195471  0.24812851  0.71150720    -0.13800
H475        H  0.20357016  0.19476920  0.68617212     0.21600
H476        H  0.16595834  0.29229896  0.64278156     0.17700
H477        H  0.15630111  0.23857881  0.60518820     0.20200
H478        H  0.18341152  0.22573093  0.72346713     0.13500
C479        C  0.17522451  0.09407962  0.95149184     0.17400
C480        C  0.17617206  0.09473675  0.92732622    -0.31700
C481        C  0.21105656  0.13683627  0.91899372     0.21800
C482        C  0.24489438  0.17554373  0.93415296     0.04000
C483        C  0.24460380  0.17447743  0.95827329    -0.21400
C484        C  0.20821993  0.13347570  0.96654219     0.13100
S485        S  0.13099364  0.04996449  0.96470819    -0.05000
C486        C  0.15571053  0.08600907  0.99053715    -0.08500
C487        C  0.19720757  0.12908026  0.98897438    -0.25100
S488        S  0.27953118  0.22559408  0.92112336    -0.02300
C489        C  0.24724715  0.19494538  0.89497907    -0.15800
C490        C  0.21254915  0.14768135  0.89637363    -0.13800
H491        H  0.14872666  0.06516310  0.91553779     0.21600
H492        H  0.26932599  0.20577508  0.97000331     0.17700
H493        H  0.21621814  0.15722548  0.00305369     0.20200
H494        H  0.18637611  0.12432037  0.88220072     0.13500
C495        C  0.42307928  0.00342148  0.65635209     0.17400
C496        C  0.42272093  0.99980736  0.68028951    -0.31700
C497        C  0.39128254  0.00376878  0.69141971     0.21800
C498        C  0.36021822  0.00927544  0.67898820     0.04000
C499        C  0.35977518  0.01171913  0.65473883    -0.21400
C500        C  0.39278031  0.00970533  0.64368771     0.13100
S501        S  0.46306535  0.00582541  0.64107754    -0.05000
C502        C  0.44048719  0.01699386  0.61709003    -0.08500
C503        C  0.40231975  0.01720310  0.62082447    -0.25100
S504        S  0.33000683  0.02077830  0.69621609    -0.02300
C505        C  0.36144304  0.52031889  0.72045291    -0.15800
C506        C  0.39128017  0.00905861  0.71508655    -0.13800
H507        H  0.44804438  0.99714801  0.69008076     0.21600
H508        H  0.33688496  0.01813063  0.64524869     0.17700
H509        H  0.38431565  0.02482074  0.60809246     0.20200
H510        H  0.41623550  0.01100506  0.72776882     0.13500
C511        C  0.40931645  0.44661544  0.94461506     0.17400
C512        C  0.40895219  0.46273928  0.92285545    -0.31700
C513        C  0.42281002  0.44735322  0.90455540     0.21800
C514        C  0.43329832  0.41475839  0.90749012     0.04000
C515        C  0.43176490  0.39719527  0.92890467    -0.21400
C516        C  0.42124497  0.41518502  0.94754881     0.13100
S517        S  0.90474383  0.96751345  0.96961926    -0.05000
C518        C  0.92465995  0.93949320  0.98463957    -0.08500
C519        C  0.42944089  0.41154158  0.97048817    -0.25100
S520        S  0.45645020  0.40602141  0.88489575    -0.02300
C521        C  0.45330470  0.44760275  0.87145194    -0.15800
C522        C  0.43407902  0.46629692  0.88366644    -0.13800
H523        H  0.90483682  0.49043064  0.92065258     0.21600
H524        H  0.44312607  0.37439957  0.93149507     0.17700
H525        H  0.44720298  0.39318267  0.47693895     0.20200
H526        H  0.43243473  0.49507658  0.87854990     0.13500
N527        N  0.46671596  0.95020885  0.32963122    -0.02000
C528        C  0.48344080  0.97005406  0.35183448     0.00500
C529        C  0.53075609  0.99297539  0.35470393    -0.22300
C530        C  0.54301720  0.98512445  0.33397331    -0.22500
C531        C  0.50278572  0.95753783  0.31901974     0.00400
H532        H  0.55290406  0.00758108  0.37100701     0.14200
H533        H  0.57652226  0.99335093  0.33109561     0.14300
N534        N  0.35857979  0.03200693  0.26408445    -0.02000
C535        C  0.36812366  0.04669675  0.24242391     0.00500
C536        C  0.38793260  0.59583270  0.24383179    -0.22300
C537        C  0.38865982  0.61107822  0.26607900    -0.22500
C538        C  0.36899937  0.07095142  0.27778777     0.00400
H539        H  0.39828226  0.61692448  0.22925699     0.14200
H540        H  0.39822579  0.64603556  0.27203088     0.14300
N541        N  0.26166173  0.72677646  0.35675685    -0.02000
C542        C  0.24651775  0.72211736  0.37811597     0.00500
C543        C  0.23203253  0.75084352  0.38242441    -0.22300
C544        C  0.23815867  0.77442772  0.36325612    -0.22500
C545        C  0.25630723  0.75964497  0.34757687     0.00400
H546        H  0.21954146  0.75514746  0.39818834     0.14200
H547        H  0.23155013  0.80108006  0.36121369     0.14300
N548        N  0.33954724  0.86111044  0.31777122    -0.35200
N549        N  0.24734297  0.81626110  0.29537093    -0.55700
N550        N  0.27809116  0.90473941  0.27473663    -0.35200
N551        N  0.37186770  0.94655763  0.29483768    -0.55700
C552        C  0.31913323  0.81713905  0.32476426     0.28400
C553        C  0.38564771  0.88331971  0.32230167     0.28400
C554        C  0.23629973  0.87430501  0.26222115     0.28400
C555        C  0.30081386  0.94529325  0.26412446     0.28400
C556        C  0.23804026  0.78522088  0.31135141     0.37000
C557        C  0.20621361  0.80550802  0.28580577     0.37000
C558        C  0.41241484  0.96012183  0.30668331     0.37000
C559        C  0.37862190  0.98558870  0.28618923     0.37000
C560        C  0.35271059  0.81205736  0.33364094    -0.20500
C561        C  0.39431797  0.85360284  0.33245978    -0.20500
C562        C  0.23299701  0.89578442  0.24343441    -0.20500
C563        C  0.27245588  0.94099142  0.24520329    -0.20500
C564        C  0.19079106  0.75408193  0.31147108    -0.21500
C565        C  0.17077696  0.76590920  0.29488450    -0.21500
C566        C  0.44548699  0.00763743  0.30490365    -0.21500
C567        C  0.42412435  0.02370954  0.29192252    -0.21500
C568        C  0.27139079  0.78415506  0.32581694    -0.16900
C569        C  0.42049690  0.93046609  0.31898101    -0.16900
C570        C  0.34542021  0.98680162  0.27180476    -0.16900
C571        C  0.19982415  0.82944756  0.26829230    -0.16900
H572        H  0.34856379  0.78178948  0.33985174     0.16000
H573        H  0.42701196  0.86131378  0.33919815     0.16000
H574        H  0.20555772  0.88086036  0.22958235     0.16000
H575        H  0.27883221  0.96723964  0.23371041     0.16000
H576        H  0.17236894  0.72535053  0.32220967     0.14300
H577        H  0.13409816  0.74724725  0.29042270     0.14300
H578        H  0.48132435  0.02852842  0.31212597     0.14300
H579        H  0.44066291  0.05902875  0.28665123     0.14300
H580        H  0.32312340  0.87698664  0.31334920     0.27600
H581        H  0.28822177  0.90043896  0.29101979     0.27600
N582        N  0.15472464  0.80456771  0.25490410    -0.02000
C583        C  0.14123696  0.76905784  0.23812393     0.00500
C584        C  0.09435633  0.73500553  0.23669590    -0.22300
C585        C  0.07784305  0.75009606  0.25285553    -0.22500
C586        C  0.11510909  0.79318540  0.26355080     0.00400
H587        H  0.07369651  0.70525174  0.22352837     0.14200
H588        H  0.04182792  0.73425055  0.25463323     0.14300
N589        N  0.16662798  0.01741377  0.24840008    -0.02000
C590        C  0.17223631  0.02671509  0.22580468     0.00500
C591        C  0.21150271  0.57434965  0.22580809    -0.22300
C592        C  0.22979688  0.59408060  0.24818875    -0.22500
C593        C  0.20138947  0.05829158  0.26137934     0.00400
H594        H  0.22483371  0.59142209  0.21025580     0.14200
H595        H  0.26077166  0.62911966  0.25348536     0.14300
N596        N  0.47056284  0.75912977  0.36298647    -0.02000
C597        C  0.49355942  0.77452347  0.38498868     0.00500
C598        C  0.52916085  0.82240849  0.38606821    -0.22300
C599        C  0.52896667  0.83670518  0.36458749    -0.22500
C600        C  0.49317356  0.79784842  0.35062005     0.00400
H601        H  0.55417897  0.84522304  0.40063648     0.14200
H602        H  0.55461695  0.87105808  0.35924352     0.14300
N603        N  0.98570825  0.86326927  0.31903373    -0.35200
N604        N  0.04511932  0.81596258  0.29552382    -0.55700
N605        N  0.11010150  0.89968237  0.27037394    -0.35200
N606        N  0.05729883  0.93842228  0.27461148    -0.55700
C607        C  0.97489384  0.81968474  0.31233153     0.28400
C608        C  0.98069823  0.88122048  0.29969618     0.28400
C609        C  0.11425500  0.86503773  0.26228070     0.28400
C610        C  0.12688749  0.93259631  0.25489887     0.28400
C611        C  0.02773882  0.79705763  0.31537281     0.37000
C612        C  0.08133609  0.81355352  0.29361320     0.37000
C613        C  0.03291815  0.95396663  0.28276364     0.37000
C614        C  0.09413899  0.97579651  0.26633522     0.37000
C615        C  0.46013156  0.80785416  0.28876616    -0.20500
C616        C  0.46406505  0.84677894  0.28072256    -0.20500
C617        C  0.13096763  0.87471426  0.24096213    -0.20500
C618        C  0.14203250  0.91873015  0.23706744    -0.20500
C619        C  0.05436743  0.78420725  0.32635941    -0.21500
C620        C  0.08710215  0.79278411  0.31201163    -0.21500
C621        C  0.05320344  0.00076509  0.27870508    -0.21500
C622        C  0.09152415  0.01422830  0.26774617    -0.21500
C623        C  0.99256334  0.79819716  0.32486710    -0.16900
C624        C  0.00000324  0.92973973  0.29838657    -0.16900
C625        C  0.12925670  0.97489046  0.25699899    -0.16900
C626        C  0.10701849  0.82723918  0.27454275    -0.16900
H627        H  0.45246665  0.77717778  0.27805584     0.16000
H628        H  0.45918423  0.85162462  0.26272840     0.16000
H629        H  0.13407746  0.85191551  0.22918810     0.16000
H630        H  0.15805861  0.93684530  0.22231921     0.16000
H631        H  0.05248644  0.77271508  0.34351522     0.14300
H632        H  0.11401077  0.78754306  0.31553275     0.14300
H633        H  0.04235348  0.02312813  0.28387804     0.14300
H634        H  0.11473078  0.04825101  0.26154320     0.14300
H635        H  0.00251407  0.88269825  0.33513754     0.27600
H636        H  0.10027567  0.90286949  0.28653049     0.27600
N637        N  0.29241614  0.58241008  0.30070996    -0.35200
N638        N  0.37835992  0.63929631  0.33204391    -0.55700
N639        N  0.34384504  0.69279557  0.34873431    -0.35200
N640        N  0.25414835  0.62956310  0.32081196    -0.55700
C641        C  0.30914680  0.55590860  0.30185439     0.28400
C642        C  0.24648683  0.55245870  0.29463280     0.28400
C643        C  0.38633975  0.71744473  0.36102140     0.28400
C644        C  0.31965963  0.70816310  0.35771155     0.28400
C645        C  0.38864261  0.61469244  0.31813042     0.36800
C646        C  0.41907655  0.67852679  0.34187324     0.37000
C647        C  0.22432978  0.60642066  0.30123665     0.37000
C648        C  0.25072500  0.66523560  0.32782522     0.37000
C649        C  0.27349284  0.50863097  0.29666288    -0.20500
C650        C  0.23380877  0.50645169  0.29185951    -0.20500
C651        C  0.38909536  0.74853463  0.37809173    -0.20500
C652        C  0.34719881  0.74234534  0.37623153    -0.20500
C653        C  0.43582640  0.63686316  0.32023571    -0.21500
C654        C  0.45486839  0.67658365  0.33570397    -0.21500
C655        C  0.20108470  0.62670121  0.29619101    -0.21500
C656        C  0.21674356  0.66285934  0.31341994    -0.21500
C657        C  0.35613420  0.57489635  0.30210116    -0.16900
C658        C  0.21856344  0.56755913  0.28794068    -0.16900
C659        C  0.27784923  0.69984195  0.34699094    -0.16900
C660        C  0.42446534  0.71673403  0.35569162    -0.16900
H661        H  0.27394474  0.97711957  0.29575741     0.16000
H662        H  0.19813711  0.97317418  0.28617921     0.16000
H663        H  0.41880286  0.77469135  0.39004544     0.16000
H664        H  0.34008988  0.76463578  0.38578149     0.16000
H665        H  0.45455822  0.62581048  0.31144853     0.14300
H666        H  0.49083704  0.70089131  0.34178835     0.14300
H667        H  0.17592987  0.61709022  0.28159299     0.14300
H668        H  0.20531281  0.68557921  0.31454838     0.14300
H669        H  0.31204890  0.61916989  0.30065152     0.27600
H670        H  0.33457423  0.67204956  0.33312145     0.27600
Zn671      Zn  0.05601157  0.55043846  0.08357601     1.49700
Zn672      Zn  0.04634711  0.50298261  0.03493794     1.49400
Zn673      Zn  0.98293878  0.54228988  0.04602677     1.49100
Zn674      Zn  0.09425152  0.61627878  0.04434765     1.49500
O675        O  0.04441599  0.55289212  0.05155998    -1.82700
O676        O  0.06135984  0.49917699  0.08976176    -0.73300
O677        O  0.98935239  0.46505535  0.01218387    -0.73100
O678        O  0.44801064  0.52818180  0.07614357    -0.72700
O679        O  0.05300531  0.46009644  0.05632966    -0.73300
O680        O  0.00435758  0.53657661  0.09988054    -0.72900
O681        O  0.94452544  0.48848904  0.02071756    -0.73500
O682        O  0.06502737  0.64308610  0.02615599    -0.72900
O683        O  0.09782265  0.53313659  0.01416176    -0.73700
O684        O  0.98946052  0.59589359  0.02870095    -0.73100
O685        O  0.13317188  0.61089604  0.02208627    -0.73500
O686        O  0.13566908  0.66144852  0.07345643    -0.73400
O687        O  0.11175371  0.60886508  0.09925365    -0.73200
C688        C  0.05908508  0.46565504  0.07849515     0.78600
C689        C  0.95344758  0.46453977  0.00778589     0.79100
C690        C  0.46396239  0.52670913  0.09631986     0.78000
C691        C  0.02414338  0.63134447  0.02079422     0.78400
C692        C  0.12860477  0.57576519  0.01065469     0.79500
C693        C  0.13864756  0.65074111  0.09395904     0.78600
C694        C  0.46832721  0.69189163  0.43468153     0.17400
C695        C  0.45284006  0.65543871  0.44954410    -0.31700
C696        C  0.48113069  0.66517452  0.47046495     0.21800
C697        C  0.02588803  0.70860922  0.47489934     0.04000
C698        C  0.04155592  0.74362740  0.45967831    -0.21400
C699        C  0.50955774  0.73547683  0.44096390     0.13100
S700        S  0.44184283  0.68827262  0.40773417    -0.05000
C701        C  0.48712995  0.74635422  0.40523207    -0.08500
C702        C  0.52028210  0.76608155  0.42450628    -0.25100
S703        S  0.05851523  0.71247681  0.49899993    -0.02300
C704        C  0.01401895  0.65590436  0.50340646    -0.15800
C705        C  0.47461088  0.63408986  0.48653449    -0.13800
H706        H  0.42100283  0.62080932  0.44475098     0.21600
H707        H  0.07561991  0.77650834  0.46311620     0.17700
H708        H  0.55204839  0.80119049  0.42656087     0.20200
H709        H  0.44487554  0.60328196  0.98847415     0.13500
C710        C  0.09241261  0.44871027  0.17253195     0.17400
C711        C  0.05639529  0.42643563  0.15429453    -0.31700
C712        C  0.06797059  0.42660821  0.13151839     0.21800
C713        C  0.11285378  0.44519480  0.12721754     0.04000
C714        C  0.14641684  0.96238112  0.14438949    -0.21400
C715        C  0.13734999  0.46798614  0.16802864     0.13100
S716        S  0.08743145  0.46206306  0.20057587    -0.05000
C717        C  0.14511256  0.99378136  0.20465115    -0.08500
C718        C  0.16669626  0.99243424  0.18585489    -0.25100
S719        S  0.12207169  0.45324012  0.09875276    -0.02300
C720        C  0.06614923  0.43587926  0.09274687    -0.15800
C721        C  0.04064924  0.41912674  0.11160451    -0.13800
H722        H  0.02175237  0.41425660  0.15745011     0.21600
H723        H  0.18190427  0.97953680  0.14094774     0.17700
H724        H  0.20372192  0.01240404  0.18571551     0.20200
H725        H  0.00670351  0.41179831  0.11185392     0.13500
C726        C  0.19304619  0.71354533  0.15362166     0.17400
C727        C  0.19733193  0.71649863  0.17796853    -0.31700
C728        C  0.18846050  0.74620301  0.18985111     0.21800
C729        C  0.17867226  0.77400831  0.17805022     0.04000
C730        C  0.17645902  0.77265782  0.15376525    -0.21400
C731        C  0.18251709  0.74078105  0.14178766     0.13100
S732        S  0.18912196  0.66996377  0.13637146    -0.05000
C733        C  0.17039695  0.68660469  0.11313449    -0.08500
C734        C  0.17076981  0.72630694  0.11839531    -0.25100
S735        S  0.16128352  0.80137073  0.19491725    -0.02300
C736        C  0.16646122  0.77458514  0.21805866    -0.15800
C737        C  0.18152235  0.74643987  0.21287595    -0.13800
H738        H  0.20254931  0.69298770  0.18708909     0.21600
H739        H  0.16578584  0.79197558  0.14451378     0.17700
H740        H  0.15607337  0.73897163  0.10660587     0.20200
H741        H  0.18291144  0.72381943  0.22470695     0.13500
C742        C  0.17556501  0.59268798  0.45204074     0.17400
C743        C  0.17693549  0.59385352  0.42791550    -0.31700
C744        C  0.21221131  0.63608005  0.41985179     0.21800
C745        C  0.24605949  0.67435115  0.43522199     0.04000
C746        C  0.24544466  0.67268965  0.45929388    -0.21400
C747        C  0.20863497  0.63164986  0.46729846     0.13100
S748        S  0.13064870  0.54868095  0.46495569    -0.05000
C749        C  0.15523055  0.58426631  0.49091919    -0.08500
C750        C  0.19717896  0.62702093  0.48963799    -0.25100
S751        S  0.28097976  0.72482045  0.42255675    -0.02300
C752        C  0.24882945  0.69494583  0.39629415    -0.15800
C753        C  0.21398487  0.64760571  0.39735793    -0.13800
H754        H  0.14944268  0.56468535  0.41596559     0.21600
H755        H  0.27016072  0.70369054  0.47119227     0.17700
H756        H  0.21619333  0.65490416  0.50383393     0.20200
H757        H  0.18785056  0.62471338  0.38308185     0.13500
C758        C  0.42171949  0.50117298  0.15655630     0.17400
C759        C  0.42173049  0.49774140  0.18052793    -0.31700
C760        C  0.39146288  0.50324183  0.19194774     0.21800
C761        C  0.36110310  0.51001538  0.17975657     0.04000
C762        C  0.36032425  0.51238235  0.15549043    -0.21400
C763        C  0.39221733  0.50885305  0.14415044     0.13100
S764        S  0.46054083  0.50188388  0.14093488    -0.05000
C765        C  0.43871256  0.51442494  0.11718556    -0.08500
C766        C  0.40150532  0.51616665  0.12123481    -0.25100
S767        S  0.33223944  0.52294515  0.19727586    -0.02300
C768        C  0.36171020  0.01907221  0.22053419    -0.15800
C769        C  0.39205773  0.50878518  0.21567321    -0.13800
H770        H  0.44651747  0.49403626  0.19011993     0.21600
H771        H  0.33807100  0.51983951  0.14619525     0.17700
H772        H  0.38418505  0.52492818  0.10871561     0.20200
H773        H  0.41670503  0.50983155  0.22819140     0.13500
C774        C  0.41173670  0.94828647  0.44448174     0.17400
C775        C  0.41146824  0.96414590  0.42262574    -0.31700
C776        C  0.42611181  0.94914446  0.40454639     0.21800
C777        C  0.43748280  0.91731788  0.40781374     0.04000
C778        C  0.43578237  0.89993853  0.42928962    -0.21400
C779        C  0.42422929  0.91737861  0.44768644     0.13100
S780        S  0.90398719  0.46799267  0.46990968    -0.05000
C781        C  0.92369869  0.43961836  0.48475418    -0.08500
C782        C  0.43185022  0.91370111  0.47067894    -0.25100
S783        S  0.46140253  0.90898308  0.38548215    -0.02300
C784        C  0.45711675  0.94949831  0.37161968    -0.15800
C785        C  0.43710624  0.96765719  0.38354000    -0.13800
H786        H  0.90640229  0.99509678  0.42048523     0.21600
H787        H  0.44764974  0.87763934  0.43212314     0.17700
H788        H  0.44420043  0.89540210  0.97629232     0.20200
H789        H  0.43452815  0.99568050  0.37809120     0.13500
N790        N  0.46630117  0.95105533  0.82965233    -0.02000
C791        C  0.48207237  0.97128782  0.85184750     0.00500
C792        C  0.52945804  0.99496975  0.85522523    -0.22300
C793        C  0.54280074  0.98731548  0.83482291    -0.22500
C794        C  0.50313610  0.95910680  0.81953661     0.00400
H795        H  0.55102063  0.01004793  0.87169261     0.14200
H796        H  0.57674189  0.99628666  0.83238793     0.14300
N797        N  0.35754008  0.03205492  0.76398692    -0.02000
C798        C  0.36732247  0.04710855  0.74240248     0.00500
C799        C  0.38629027  0.59534999  0.74293681    -0.22300
C800        C  0.38688107  0.61048605  0.76518877    -0.22500
C801        C  0.36778240  0.07077953  0.77782114     0.00400
H802        H  0.39634354  0.61639340  0.72834374     0.14200
H803        H  0.39605065  0.64528510  0.77114814     0.14300
N804        N  0.26148338  0.72633043  0.85612550    -0.02000
C805        C  0.24616634  0.72140205  0.87747045     0.00500
C806        C  0.23184564  0.75025081  0.88186524    -0.22300
C807        C  0.23821818  0.77414434  0.86278993    -0.22500
C808        C  0.25634263  0.75943540  0.84706186     0.00400
H809        H  0.21930091  0.75443276  0.89763611     0.14200
H810        H  0.23172841  0.80090182  0.86083022     0.14300
N811        N  0.33946978  0.86091429  0.81701561    -0.35200
N812        N  0.24715045  0.81593609  0.79482126    -0.55700
N813        N  0.27750777  0.90457079  0.77435975    -0.35200
N814        N  0.37142487  0.94666987  0.79439545    -0.55700
C815        C  0.31916946  0.81716334  0.82427284     0.28400
C816        C  0.38558645  0.88347752  0.82171739     0.28400
C817        C  0.23578162  0.87403214  0.76181381     0.28400
C818        C  0.30008538  0.94522464  0.76382877     0.28400
C819        C  0.23797342  0.78497932  0.81083460     0.37000
C820        C  0.20596952  0.80510864  0.78529708     0.37000
C821        C  0.41199257  0.96038631  0.80628171     0.37000
C822        C  0.37792142  0.98571200  0.78590184     0.37000
C823        C  0.35285941  0.81254597  0.83348806    -0.20500
C824        C  0.39439101  0.85409697  0.83215488    -0.20500
C825        C  0.23235785  0.89555961  0.74307883    -0.20500
C826        C  0.27168214  0.94088321  0.74491773    -0.20500
C827        C  0.19073979  0.75382920  0.81101279    -0.21500
C828        C  0.17061975  0.76552006  0.79441760    -0.21500
C829        C  0.44483553  0.00803778  0.80467632    -0.21500
C830        C  0.42330868  0.02400698  0.79175226    -0.21500
C831        C  0.27141561  0.78406593  0.82531968    -0.16900
C832        C  0.42026502  0.93080749  0.81853919    -0.16900
C833        C  0.34459459  0.98682535  0.77156972    -0.16900
C834        C  0.19944405  0.82903133  0.76782355    -0.16900
H835        H  0.34879880  0.78272443  0.84024938     0.16000
H836        H  0.42709869  0.86215704  0.83912446     0.16000
H837        H  0.20492203  0.88058530  0.72921694     0.16000
H838        H  0.27795351  0.96716770  0.73346884     0.16000
H839        H  0.17237641  0.72522338  0.82182381     0.14300
H840        H  0.13392545  0.74681376  0.79000919     0.14300
H841        H  0.48063397  0.02908949  0.81197114     0.14300
H842        H  0.43967589  0.05938987  0.78659576     0.14300
H843        H  0.32290147  0.87655192  0.81236202     0.27600
H844        H  0.28767223  0.90024127  0.79064702     0.27600
N845        N  0.15432135  0.80403866  0.75445147    -0.02000
C846        C  0.14092601  0.76856996  0.73765997     0.00500
C847        C  0.09408494  0.73435714  0.73626580    -0.22300
C848        C  0.07749479  0.74928766  0.75246049    -0.22500
C849        C  0.11467217  0.79244219  0.76314688     0.00400
H850        H  0.07348308  0.70457045  0.72311008     0.14200
H851        H  0.04146404  0.73327291  0.75427714     0.14300
N852        N  0.16547503  0.01640565  0.74825594    -0.02000
C853        C  0.17121020  0.02598447  0.72570741     0.00500
C854        C  0.21087342  0.57477027  0.72480628    -0.22300
C855        C  0.22891256  0.59432943  0.74723098    -0.22500
C856        C  0.20002365  0.05724471  0.76133189     0.00400
H857        H  0.22425581  0.59206936  0.70931151     0.14200
H858        H  0.25973292  0.62942828  0.75261755     0.14300
N859        N  0.46994801  0.75785834  0.86225351    -0.02000
C860        C  0.49301705  0.77225388  0.88418920     0.00500
C861        C  0.52771780  0.82041887  0.88601859    -0.22300
C862        C  0.52708850  0.83602466  0.86492640    -0.22500
C863        C  0.49183986  0.79751557  0.85049453     0.00400
H864        H  0.55251298  0.84217538  0.90088690     0.14200
H865        H  0.55247795  0.87092861  0.86004666     0.14300
N866        N  0.98517471  0.86196425  0.81895099    -0.35200
N867        N  0.04448083  0.81478888  0.79524994    -0.55700
N868        N  0.10909781  0.89856780  0.77004899    -0.35200
N869        N  0.05624111  0.93722125  0.77443733    -0.55700
C870        C  0.97430476  0.81840611  0.81216835     0.28400
C871        C  0.98008750  0.88001377  0.79968180     0.28400
C872        C  0.11338784  0.86403283  0.76192901     0.28400
C873        C  0.12574908  0.93149604  0.75457861     0.28400
C874        C  0.02718965  0.79585206  0.81510946     0.37000
C875        C  0.08077445  0.81252947  0.79328947     0.37000
C876        C  0.03196840  0.95276307  0.78273520     0.37000
C877        C  0.09293562  0.97458945  0.76609802     0.37000
C878        C  0.46155104  0.81013704  0.78862910    -0.20500
C879        C  0.46600896  0.84945306  0.78079988    -0.20500
C880        C  0.13001180  0.87376398  0.74058953    -0.20500
C881        C  0.14088875  0.91771669  0.73670822    -0.20500
C882        C  0.05394011  0.78310406  0.82605575    -0.21500
C883        C  0.08668683  0.79182279  0.81167730    -0.21500
C884        C  0.05213811  0.99954483  0.77870004    -0.21500
C885        C  0.09026876  0.01298575  0.76757279    -0.21500
C886        C  0.99197832  0.79688556  0.82464183    -0.16900
C887        C  0.99938776  0.92855227  0.79848101    -0.16900
C888        C  0.12805320  0.97375628  0.75673293    -0.16900
C889        C  0.10639790  0.82632117  0.77418766    -0.16900
H890        H  0.45413237  0.77973895  0.77776098     0.16000
H891        H  0.46189481  0.85495801  0.76283832     0.16000
H892        H  0.13324292  0.85107066  0.72880296     0.16000
H893        H  0.15680897  0.93585351  0.72194663     0.16000
H894        H  0.05210840  0.77155981  0.84319798     0.14300
H895        H  0.11368491  0.78670609  0.81517323     0.14300
H896        H  0.04133727  0.02189495  0.78398560     0.14300
H897        H  0.11331912  0.04696298  0.76130045     0.14300
H898        H  0.00204128  0.88130127  0.83506568     0.27600
H899        H  0.09931496  0.90170690  0.78622656     0.27600
N900        N  0.29145717  0.58191642  0.79968188    -0.35200
N901        N  0.37746546  0.63814354  0.83135418    -0.55700
N902        N  0.34343710  0.69213689  0.84780855    -0.35200
N903        N  0.25379469  0.62942463  0.81976818    -0.55700
C904        C  0.30796321  0.55523542  0.80100512     0.28400
C905        C  0.24552824  0.55211197  0.79354619     0.28400
C906        C  0.38577099  0.71632269  0.86024179     0.28400
C907        C  0.31930673  0.70747787  0.85688531     0.28400
C908        C  0.38754032  0.61352518  0.81732926     0.36800
C909        C  0.41831029  0.67731764  0.84109164     0.37000
C910        C  0.22368807  0.60626188  0.80028030     0.37000
C911        C  0.25040364  0.66502804  0.82696323     0.37000
C912        C  0.27216683  0.50799047  0.79583642    -0.20500
C913        C  0.23261431  0.50601585  0.79090106    -0.20500
C914        C  0.38849218  0.74707488  0.87749594    -0.20500
C915        C  0.34672152  0.74115467  0.87560471    -0.20500
C916        C  0.43470957  0.63561670  0.81927405    -0.21500
C917        C  0.45398234  0.67533538  0.83475357    -0.21500
C918        C  0.20026321  0.62643412  0.79546872    -0.21500
C919        C  0.21616962  0.66258929  0.81274963    -0.21500
C920        C  0.35489348  0.57398573  0.80124583    -0.16900
C921        C  0.21772289  0.56737383  0.78689785    -0.16900
C922        C  0.27759278  0.69943566  0.84620590    -0.16900
C923        C  0.42384721  0.71555446  0.85490463    -0.16900
H924        H  0.27277292  0.97639566  0.79561059     0.16000
H925        H  0.19677505  0.97213772  0.78608229     0.16000
H926        H  0.41812306  0.77281558  0.88960560     0.16000
H927        H  0.33966572  0.76335576  0.88528042     0.16000
H928        H  0.45331231  0.62462247  0.81031573     0.14300
H929        H  0.49003028  0.69967494  0.84065485     0.14300
H930        H  0.17467188  0.61658360  0.78105008     0.14300
H931        H  0.20459251  0.68514675  0.81409942     0.14300
H932        H  0.31126993  0.61867837  0.79960067     0.27600
H933        H  0.33430717  0.67178146  0.83207262     0.27600
Zn934      Zn  0.05474286  0.54864528  0.58279475     1.49700
Zn935      Zn  0.04492984  0.50152894  0.53414831     1.49400
Zn936      Zn  0.98097208  0.53996954  0.54547446     1.49100
Zn937      Zn  0.09199400  0.61493871  0.54376615     1.49500
O938        O  0.04268758  0.55117638  0.55085914    -1.82700
O939        O  0.06001682  0.49726750  0.58886807    -0.73300
O940        O  0.98784190  0.46322264  0.51142787    -0.73100
O941        O  0.44678189  0.52674865  0.57562300    -0.72700
O942        O  0.05197090  0.45866559  0.55534422    -0.73300
O943        O  0.00345083  0.53517451  0.59922442    -0.72900
O944        O  0.94235738  0.48550319  0.52052001    -0.73500
O945        O  0.06237012  0.64166279  0.52570775    -0.72900
O946        O  0.09667550  0.53233771  0.51364209    -0.73700
O947        O  0.98679859  0.59305715  0.52795816    -0.73100
O948        O  0.13130938  0.61000047  0.52163110    -0.73500
O949        O  0.13316409  0.66002591  0.57295886    -0.73400
O950        O  0.11057037  0.60704339  0.59847873    -0.73200
C951        C  0.05797054  0.46397061  0.57750440     0.78600
C952        C  0.95140572  0.46189411  0.50740787     0.79100
C953        C  0.46308500  0.52607850  0.59586150     0.78000
C954        C  0.02123178  0.62917114  0.52028806     0.78400
C955        C  0.12732108  0.57510008  0.51028613     0.79500
C956        C  0.13676487  0.64914377  0.59333852     0.78600
C957        C  0.47040019  0.69156556  0.93425004     0.17400
C958        C  0.45375623  0.65810871  0.95081355    -0.31700
C959        C  0.48483113  0.66642883  0.97021027     0.21800
C960        C  0.03007474  0.70824616  0.97367034     0.04000
C961        C  0.04609466  0.74144065  0.95746847    -0.21400
C962        C  0.51577064  0.73068507  0.93727385     0.13100
S963        S  0.43966905  0.68990836  0.90932250    -0.05000
C964        C  0.48882958  0.74281325  0.90337396    -0.08500
C965        C  0.52644757  0.75915850  0.91979599    -0.25100
S966        S  0.06366379  0.71203855  0.99726839    -0.02300
C967        C  0.01753410  0.65791655  0.00354887    -0.15800
C968        C  0.47693595  0.63750996  0.98770295    -0.13800
H969        H  0.41851653  0.62692583  0.94859081     0.21600
H970        H  0.08128022  0.77279332  0.95970884     0.17700
H971        H  0.56064896  0.79099595  0.91924410     0.20200
H972        H  0.44587993  0.59708289  0.48493410     0.13500
C973        C  0.09230612  0.44841724  0.67139412     0.17400
C974        C  0.05617964  0.42542722  0.65321622    -0.31700
C975        C  0.06768122  0.42548573  0.63043589     0.21800
C976        C  0.11265112  0.44464439  0.62608701     0.04000
C977        C  0.14629725  0.96273246  0.64423090    -0.21400
C978        C  0.13733047  0.46832673  0.66684497     0.13100
S979        S  0.08718332  0.46170759  0.69941374    -0.05000
C980        C  0.14432167  0.99324202  0.70449266    -0.08500
C981        C  0.16615089  0.99233284  0.68572313    -0.25100
S982        S  0.12155186  0.45231967  0.59757186    -0.02300
C983        C  0.06539506  0.43428684  0.59162916    -0.15800
C984        C  0.04005564  0.41734756  0.61052764    -0.13800
H985        H  0.02141843  0.41273585  0.65640254     0.21600
H986        H  0.18185175  0.98017755  0.64084767     0.17700
H987        H  0.20320539  0.01253236  0.68564732     0.20200
H988        H  0.00593081  0.40955157  0.61080632     0.13500
C989        C  0.19157927  0.71224463  0.65301490     0.17400
C990        C  0.19622499  0.71543223  0.67736664    -0.31700
C991        C  0.18769201  0.74538213  0.68928753     0.21800
C992        C  0.17793476  0.77323236  0.67751059     0.04000
C993        C  0.17534679  0.77162858  0.65320780    -0.21400
C994        C  0.18101623  0.73947412  0.64120043     0.13100
S995        S  0.18729553  0.66843764  0.63577617    -0.05000
C996        C  0.16838604  0.68498012  0.61257077    -0.08500
C997        C  0.16891332  0.72478442  0.61782861    -0.25100
S998        S  0.16096707  0.80092370  0.69445794    -0.02300
C999        C  0.16617176  0.77412986  0.71759067    -0.15800
C1000       C  0.18101056  0.74580156  0.71234673    -0.13800
H1001       H  0.20144644  0.69191679  0.68647997     0.21600
H1002       H  0.16467431  0.79097446  0.64398441     0.17700
H1003       H  0.15420859  0.73747416  0.60606260     0.20200
H1004       H  0.18234578  0.72312790  0.72416154     0.13500
C1005       C  0.17499640  0.59262008  0.95184935     0.17400
C1006       C  0.17577805  0.59361507  0.92767658    -0.31700
C1007       C  0.21120405  0.63553020  0.91942809     0.21800
C1008       C  0.24566120  0.67365648  0.93465572     0.04000
C1009       C  0.24554024  0.67220431  0.95876526    -0.21400
C1010       C  0.20867694  0.63147887  0.96697157     0.13100
S1011       S  0.13032395  0.54895805  0.96505662    -0.05000
C1012       C  0.15585815  0.58454834  0.99099469    -0.08500
C1013       C  0.19789374  0.62707438  0.98944893    -0.25100
S1014       S  0.28095102  0.72377278  0.92180076    -0.02300
C1015       C  0.24824391  0.69398803  0.89562383    -0.15800
C1016       C  0.21280800  0.64690661  0.89689336    -0.13800
H1017       H  0.14786610  0.56454054  0.91584931     0.21600
H1018       H  0.27080973  0.70313131  0.97056752     0.17700
H1019       H  0.21750687  0.65496807  0.00359868     0.20200
H1020       H  0.18629069  0.62415663  0.88273191     0.13500
C1021       C  0.42071991  0.50040474  0.65597195     0.17400
C1022       C  0.42070292  0.49706824  0.67993855    -0.31700
C1023       C  0.39033979  0.50250672  0.69128021     0.21800
C1024       C  0.35989736  0.50909289  0.67902001     0.04000
C1025       C  0.35907245  0.51124527  0.65475274    -0.21400
C1026       C  0.39107690  0.50781642  0.64349440     0.13100
S1027       S  0.45979958  0.50143870  0.64045942    -0.05000
C1028       C  0.43780496  0.51367252  0.61666815    -0.08500
C1029       C  0.40040593  0.51510896  0.62060395    -0.25100
S1030       S  0.33108855  0.52223968  0.69643871    -0.02300
C1031       C  0.36062644  0.01967283  0.72037643    -0.15800
C1032       C  0.39100253  0.50831071  0.71498192    -0.13800
H1033       H  0.44559367  0.49358550  0.68958764     0.21600
H1034       H  0.33676215  0.51856506  0.64539977     0.17700
H1035       H  0.38301376  0.52370319  0.60803266     0.20200
H1036       H  0.41568919  0.50951442  0.72754135     0.13500
C1037       C  0.41083728  0.95010325  0.94449730     0.17400
C1038       C  0.41099758  0.96651619  0.92275288    -0.31700
C1039       C  0.42475208  0.95089460  0.90449424     0.21800
C1040       C  0.43478096  0.91796407  0.90747976     0.04000
C1041       C  0.43261808  0.90005756  0.92884208    -0.21400
C1042       C  0.42205782  0.91811416  0.94742612     0.13100
S1043       S  0.90738691  0.47158657  0.96988015    -0.05000
C1044       C  0.92651625  0.44286289  0.98490350    -0.08500
C1045       C  0.42969877  0.91400281  0.97034715    -0.25100
S1046       S  0.45799987  0.90900238  0.88500796    -0.02300
C1047       C  0.45510648  0.95059523  0.87141916    -0.15800
C1048       C  0.43621264  0.96972902  0.88358546    -0.13800
H1049       H  0.90127027  0.98556485  0.92038849     0.21600
H1050       H  0.44352200  0.87688312  0.93145766     0.17700
H1051       H  0.44713697  0.89596574  0.47683270     0.20200
H1052       H  0.43479152  0.99859574  0.87838625     0.13500
N1053       N  0.96541469  0.44943029  0.33007364    -0.02000
C1054       C  0.98092796  0.46858764  0.35242509     0.00500
C1055       C  0.02833324  0.49249716  0.35583991    -0.22300
C1056       C  0.04196476  0.48612465  0.33524501    -0.22500
C1057       C  0.00243499  0.45837792  0.31982075     0.00400
H1058       H  0.04975060  0.50688089  0.37236193     0.14200
H1059       H  0.07599077  0.49541888  0.33273934     0.14300
N1060       N  0.85921860  0.53338997  0.26473262    -0.02000
C1061       C  0.86963656  0.54857916  0.24319676     0.00500
C1062       C  0.88303489  0.09318413  0.24200265    -0.22300
C1063       C  0.88349781  0.10858073  0.26418013    -0.22500
C1064       C  0.87063205  0.57254418  0.27867664     0.00400
H1065       H  0.89253386  0.11381255  0.22725961     0.14200
H1066       H  0.89193829  0.14317341  0.26993672     0.14300
N1067       N  0.75963254  0.22508755  0.35545098    -0.02000
C1068       C  0.74453129  0.22059631  0.37683053     0.00500
C1069       C  0.73067674  0.24987648  0.38115736    -0.22300
C1070       C  0.73713672  0.27358308  0.36199687    -0.22500
C1071       C  0.75488145  0.25836055  0.34629303     0.00400
H1072       H  0.71845470  0.25451810  0.39694626     0.14200
H1073       H  0.73105098  0.30062043  0.35998186     0.14300
N1074       N  0.83855719  0.36011989  0.31705138    -0.35200
N1075       N  0.74684804  0.31580839  0.29426472    -0.55700
N1076       N  0.77804968  0.40543325  0.27446405    -0.35200
N1077       N  0.87139615  0.44668790  0.29495096    -0.55700
C1078       C  0.81797140  0.31578923  0.32358894     0.28400
C1079       C  0.88459726  0.38229363  0.32176520     0.28400
C1080       C  0.73652014  0.37520361  0.26169413     0.28400
C1081       C  0.80101861  0.44642148  0.26420146     0.28400
C1082       C  0.73715647  0.28434938  0.31007132     0.37000
C1083       C  0.70589924  0.30556371  0.28474941     0.37000
C1084       C  0.91166487  0.45989880  0.30699399     0.37000
C1085       C  0.87836815  0.48612994  0.28670569     0.37000
C1086       C  0.85137805  0.31034486  0.33230747    -0.20500
C1087       C  0.89304691  0.35214672  0.33160322    -0.20500
C1088       C  0.73362444  0.39721556  0.24304617    -0.20500
C1089       C  0.77301560  0.44256106  0.24521774    -0.20500
C1090       C  0.68988041  0.25347321  0.31011547    -0.21500
C1091       C  0.67021363  0.26585557  0.29365075    -0.21500
C1092       C  0.94477277  0.50763282  0.30577294    -0.21500
C1093       C  0.92375081  0.52417483  0.29290928    -0.21500
C1094       C  0.77020175  0.28282835  0.32452482    -0.16900
C1095       C  0.91951558  0.42974933  0.31896692    -0.16900
C1096       C  0.84555281  0.48783400  0.27223476    -0.16900
C1097       C  0.69985475  0.33010133  0.26746133    -0.16900
H1098       H  0.84703260  0.27966482  0.33810063     0.16000
H1099       H  0.92558225  0.35974096  0.33851790     0.16000
H1100       H  0.70651884  0.38251603  0.22901163     0.16000
H1101       H  0.77957376  0.46918161  0.23394027     0.16000
H1102       H  0.67119917  0.22466822  0.32077969     0.14300
H1103       H  0.63357895  0.24750800  0.28919391     0.14300
H1104       H  0.98044264  0.52836883  0.31326256     0.14300
H1105       H  0.94049445  0.55979278  0.28802974     0.14300
H1106       H  0.82218565  0.37623248  0.31286382     0.27600
H1107       H  0.78781520  0.40059259  0.29074054     0.27600
N1108       N  0.65479832  0.30569764  0.25407895    -0.02000
C1109       C  0.64114269  0.27053980  0.23705045     0.00500
C1110       C  0.59421430  0.23666993  0.23552591    -0.22300
C1111       C  0.57783729  0.25145896  0.25191851    -0.22500
C1112       C  0.61522554  0.29422119  0.26283569     0.00400
H1113       H  0.57348145  0.20718691  0.22222884     0.14200
H1114       H  0.54185297  0.23567429  0.25375105     0.14300
N1115       N  0.66789253  0.51932455  0.24903064    -0.02000
C1116       C  0.67334642  0.52887849  0.22646377     0.00500
C1117       C  0.70855162  0.07230113  0.22443444    -0.22300
C1118       C  0.72632290  0.09211609  0.24685387    -0.22500
C1119       C  0.70270937  0.56008745  0.26204153     0.00400
H1120       H  0.72187714  0.08953575  0.20891780     0.14200
H1121       H  0.75691644  0.12737827  0.25221818     0.14300
N1122       N  0.96799347  0.25629563  0.36160288    -0.02000
C1123       C  0.99064801  0.26950286  0.38354932     0.00500
C1124       C  0.02597388  0.31741166  0.38592246    -0.22300
C1125       C  0.02597077  0.33419398  0.36506587    -0.22500
C1126       C  0.99062314  0.29643468  0.35025500     0.00400
H1127       H  0.05107910  0.33772380  0.40091380     0.14200
H1128       H  0.05202012  0.36915849  0.36050149     0.14300
N1129       N  0.48601122  0.36367194  0.31891500    -0.35200
N1130       N  0.54529777  0.31661382  0.29515769    -0.55700
N1131       N  0.61098843  0.40106218  0.27055340    -0.35200
N1132       N  0.55844761  0.43996603  0.27505245    -0.55700
C1133       C  0.47497348  0.32010366  0.31196993     0.28400
C1134       C  0.48137595  0.38217401  0.29971345     0.28400
C1135       C  0.61504521  0.36648088  0.26223397     0.28400
C1136       C  0.62816320  0.43442927  0.25530736     0.28400
C1137       C  0.52754013  0.29713504  0.31485033     0.37000
C1138       C  0.58137414  0.31399543  0.29316431     0.37000
C1139       C  0.53399955  0.45537894  0.28325275     0.37000
C1140       C  0.59537109  0.47749051  0.26691975     0.37000
C1141       C  0.96155617  0.31006156  0.28843338    -0.20500
C1142       C  0.96594221  0.34941062  0.28070908    -0.20500
C1143       C  0.63214162  0.37672053  0.24101790    -0.20500
C1144       C  0.64354603  0.42096290  0.23743742    -0.20500
C1145       C  0.55379895  0.28370592  0.32567858    -0.21500
C1146       C  0.58667876  0.29252365  0.31136673    -0.21500
C1147       C  0.55433895  0.50227262  0.27938679    -0.21500
C1148       C  0.59273629  0.51590489  0.26845851    -0.21500
C1149       C  0.49228106  0.29813655  0.32435001    -0.16900
C1150       C  0.50085966  0.43079278  0.29871637    -0.16900
C1151       C  0.63055638  0.47671996  0.25758346    -0.16900
C1152       C  0.60733767  0.32816428  0.27418062    -0.16900
H1153       H  0.95436627  0.27983868  0.27749904     0.16000
H1154       H  0.96199576  0.35513234  0.26276917     0.16000
H1155       H  0.63525634  0.35414551  0.22908469     0.16000
H1156       H  0.65994950  0.43949916  0.22285226     0.16000
H1157       H  0.55155165  0.27161423  0.34271061     0.14300
H1158       H  0.61337232  0.28694026  0.31480081     0.14300
H1159       H  0.54342220  0.52454308  0.28462565     0.14300
H1160       H  0.61593656  0.54999521  0.26232734     0.14300
H1161       H  0.50270253  0.38270766  0.33510805     0.27600
H1162       H  0.60089465  0.40383545  0.28669566     0.27600
N1163       N  0.78925043  0.08027609  0.29916139    -0.35200
N1164       N  0.87550045  0.13678900  0.33061170    -0.55700
N1165       N  0.84129491  0.19056482  0.34720673    -0.35200
N1166       N  0.75145680  0.12760520  0.31933872    -0.55700
C1167       C  0.80592207  0.05374146  0.30044433     0.28400
C1168       C  0.74328123  0.05030756  0.29321284     0.28400
C1169       C  0.88385206  0.21513507  0.35942560     0.28400
C1170       C  0.81730201  0.20610817  0.35624634     0.28400
C1171       C  0.88557711  0.11231075  0.31649309     0.36800
C1172       C  0.91635086  0.17613992  0.34018230     0.37000
C1173       C  0.72116432  0.10421803  0.29992929     0.37000
C1174       C  0.74801387  0.16317377  0.32652854     0.37000
C1175       C  0.77020763  0.00643582  0.29541438    -0.20500
C1176       C  0.73051762  0.00426316  0.29064416    -0.20500
C1177       C  0.88682739  0.24630298  0.37652714    -0.20500
C1178       C  0.84502407  0.24031155  0.37473256    -0.20500
C1179       C  0.93277344  0.13470011  0.31818684    -0.21500
C1180       C  0.95206980  0.17446501  0.33362060    -0.21500
C1181       C  0.69751563  0.12418398  0.29517929    -0.21500
C1182       C  0.71353127  0.16048357  0.31240848    -0.21500
C1183       C  0.85285313  0.07262461  0.30054024    -0.16900
C1184       C  0.71529685  0.06534954  0.28656581    -0.16900
C1185       C  0.77547240  0.19787840  0.34563661    -0.16900
C1186       C  0.92187301  0.21431418  0.35401342    -0.16900
H1187       H  0.77526894  0.47879223  0.29615718     0.16000
H1188       H  0.69949731  0.47484226  0.28647683     0.16000
H1189       H  0.91666645  0.27240754  0.38843451     0.16000
H1190       H  0.83809369  0.26272934  0.38430329     0.16000
H1191       H  0.95137438  0.12391464  0.30906360     0.14300
H1192       H  0.98818137  0.19914902  0.33926748     0.14300
H1193       H  0.67171727  0.11411510  0.28083457     0.14300
H1194       H  0.70190395  0.18301283  0.31378220     0.14300
H1195       H  0.80892975  0.11701415  0.29898007     0.27600
H1196       H  0.83185700  0.16973790  0.33160404     0.27600
Zn1197     Zn  0.55777840  0.04994816  0.08291420     1.49700
Zn1198     Zn  0.54599696  0.00199614  0.03406557     1.49400
Zn1199     Zn  0.48468767  0.04349419  0.04580358     1.49100
Zn1200     Zn  0.59591033  0.11534609  0.04393224     1.49500
O1201       O  0.54551954  0.05247197  0.05103544    -1.82700
O1202       O  0.56200436  0.99781002  0.08878532    -0.73300
O1203       O  0.48885131  0.96540238  0.01133719    -0.73100
O1204       O  0.94813107  0.02831634  0.07555972    -0.72700
O1205       O  0.55140689  0.95803646  0.05514791    -0.73300
O1206       O  0.50670451  0.03727269  0.09930735    -0.72900
O1207       O  0.44500282  0.98960486  0.02069440    -0.73500
O1208       O  0.56729764  0.14160206  0.02504974    -0.72900
O1209       O  0.59766655  0.03162654  0.01343446    -0.73700
O1210       O  0.49195945  0.09737990  0.02831838    -0.73100
O1211       O  0.63523293  0.10950488  0.02220566    -0.73500
O1212       O  0.63643714  0.16096216  0.07305243    -0.73400
O1213       O  0.61390725  0.10821619  0.09868883    -0.73200
C1214       C  0.55830854  0.96365332  0.07729751     0.78600
C1215       C  0.45319527  0.96549364  0.00739113     0.79100
C1216       C  0.96499020  0.02825416  0.09576740     0.78000
C1217       C  0.52693276  0.13127490  0.01979557     0.78400
C1218       C  0.62961057  0.07415960  0.01040954     0.79500
C1219       C  0.63994031  0.15031703  0.09349989     0.78600
C1220       C  0.96971284  0.19137552  0.43412733     0.17400
C1221       C  0.95350049  0.16180205  0.45238352    -0.31700
C1222       C  0.98653811  0.16786838  0.47001083     0.21800
C1223       C  0.53232688  0.20633669  0.47174422     0.04000
C1224       C  0.54852808  0.23810940  0.45486012    -0.21400
C1225       C  0.01656301  0.22439323  0.43372981     0.13100
S1226       S  0.93660734  0.19279881  0.41139225    -0.05000
C1227       C  0.98689539  0.23858784  0.40171071    -0.08500
C1228       C  0.02640650  0.25043878  0.41526621    -0.25100
S1229       S  0.56644602  0.20986998  0.49498287    -0.02300
C1230       C  0.51936781  0.15792827  0.50263122    -0.15800
C1231       C  0.97884791  0.14193846  0.48883419    -0.13800
H1232       H  0.91699368  0.13548266  0.45286815     0.21600
H1233       H  0.58434937  0.26807358  0.45624858     0.17700
H1234       H  0.06120451  0.27844848  0.41228593     0.20200
H1235       H  0.94699695  0.09725255  0.98435630     0.13500
C1236       C  0.59049439  0.94611596  0.17101537     0.17400
C1237       C  0.55455513  0.92364108  0.15274245    -0.31700
C1238       C  0.56626007  0.92373549  0.13000737     0.21800
C1239       C  0.61119326  0.94235065  0.12579486     0.04000
C1240       C  0.64799038  0.46483434  0.14506853    -0.21400
C1241       C  0.63550959  0.96556705  0.16659647     0.13100
S1242       S  0.58526260  0.95949088  0.19899157    -0.05000
C1243       C  0.64636594  0.49602477  0.20528613    -0.08500
C1244       C  0.66810464  0.49503587  0.18648967    -0.25100
S1245       S  0.62054051  0.95022306  0.09734454    -0.02300
C1246       C  0.56472310  0.93313040  0.09125648    -0.15800
C1247       C  0.53905073  0.91625566  0.11004442    -0.13800
H1248       H  0.51986304  0.91139410  0.15582983     0.21600
H1249       H  0.68351870  0.48242698  0.14160719     0.17700
H1250       H  0.70514913  0.51536153  0.18633935     0.20200
H1251       H  0.50514466  0.90904827  0.11024106     0.13500
C1252       C  0.69373439  0.21432997  0.15313156     0.17400
C1253       C  0.69813801  0.21786743  0.17748937    -0.31700
C1254       C  0.68899407  0.24757444  0.18913216     0.21800
C1255       C  0.67887368  0.27489056  0.17708852     0.04000
C1256       C  0.67654866  0.27297423  0.15277963    -0.21400
C1257       C  0.68284441  0.24103871  0.14104684     0.13100
S1258       S  0.69014499  0.17059381  0.13618503    -0.05000
C1259       C  0.67112900  0.18646308  0.11272576    -0.08500
C1260       C  0.67109662  0.22602070  0.11769857    -0.25100
S1261       S  0.66121360  0.30230931  0.19372801    -0.02300
C1262       C  0.66661037  0.27608977  0.21707898    -0.15800
C1263       C  0.68203931  0.24818222  0.21214185    -0.13800
H1264       H  0.70364043  0.19474890  0.18681016     0.21600
H1265       H  0.66561717  0.29188765  0.14333962     0.17700
H1266       H  0.65624291  0.23827066  0.10573350     0.20200
H1267       H  0.68361782  0.22589575  0.22413154     0.13500
C1268       C  0.67472054  0.09211977  0.45154757     0.17400
C1269       C  0.67508892  0.09305370  0.42735213    -0.31700
C1270       C  0.71019401  0.13502667  0.41899605     0.21800
C1271       C  0.74473988  0.17328385  0.43413355     0.04000
C1272       C  0.74503642  0.17189358  0.45825767    -0.21400
C1273       C  0.70849434  0.13109154  0.46658231     0.13100
S1274       S  0.63041616  0.04839448  0.46491826    -0.05000
C1275       C  0.65620338  0.08411400  0.49081605    -0.08500
C1276       C  0.69808654  0.12671019  0.48912593    -0.25100
S1277       S  0.77963628  0.22339234  0.42118401    -0.02300
C1278       C  0.74666909  0.19339524  0.39509129    -0.15800
C1279       C  0.71141316  0.14628361  0.39645087    -0.13800
H1280       H  0.64710051  0.06386775  0.41560295     0.21600
H1281       H  0.77037030  0.20289947  0.46999994     0.17700
H1282       H  0.71779374  0.15470031  0.50322627     0.20200
H1283       H  0.68481480  0.12337627  0.38234777     0.13500
C1284       C  0.92422328  0.00441304  0.15625888     0.17400
C1285       C  0.92425739  0.00121718  0.18021462    -0.31700
C1286       C  0.89191964  0.00368661  0.19126511     0.21800
C1287       C  0.85973727  0.00749164  0.17876163     0.04000
C1288       C  0.85885287  0.00938536  0.15447267    -0.21400
C1289       C  0.89264374  0.00874283  0.14347763     0.13100
S1290       S  0.96490932  0.00827989  0.14105782    -0.05000
C1291       C  0.94066166  0.01708110  0.11687114    -0.08500
C1292       C  0.90162333  0.01569950  0.12052376    -0.25100
S1293       S  0.82866343  0.01783512  0.19592209    -0.02300
C1294       C  0.86205276  0.52098545  0.22103668    -0.15800
C1295       C  0.89196823  0.00917117  0.21490660    -0.13800
H1296       H  0.95045130  0.99997139  0.19006660     0.21600
H1297       H  0.83496246  0.01435292  0.14489659     0.17700
H1298       H  0.88243857  0.02160355  0.10762278     0.20200
H1299       H  0.91762795  0.01240129  0.22759796     0.13500
C1300       C  0.90769467  0.44393646  0.44458231     0.17400
C1301       C  0.90720190  0.45992836  0.42280079    -0.31700
C1302       C  0.92198361  0.44532830  0.40463155     0.21800
C1303       C  0.93341198  0.41349137  0.40768902     0.04000
C1304       C  0.93188634  0.39592280  0.42909768    -0.21400
C1305       C  0.92051336  0.41324925  0.44763437     0.13100
S1306       S  0.40771549  0.97234987  0.46973052    -0.05000
C1307       C  0.42657805  0.94339392  0.48475134    -0.08500
C1308       C  0.92887163  0.40994242  0.47060030    -0.25100
S1309       S  0.95766953  0.40583672  0.38530785    -0.02300
C1310       C  0.95370569  0.44686769  0.37179822    -0.15800
C1311       C  0.93338156  0.46454604  0.38381172    -0.13800
H1312       H  0.40008307  0.48419647  0.42060030     0.21600
H1313       H  0.94399202  0.37379323  0.43179923     0.17700
H1314       H  0.94787395  0.39612196  0.97698750     0.20200
H1315       H  0.93102661  0.49285405  0.37862282     0.13500
N1316       N  0.96782765  0.45127246  0.82986133    -0.02000
C1317       C  0.98451561  0.47126006  0.85204960     0.00500
C1318       C  0.03190120  0.49471820  0.85487986    -0.22300
C1319       C  0.04429316  0.48713795  0.83413382    -0.22500
C1320       C  0.00406797  0.45916895  0.81920624     0.00400
H1321       H  0.05410019  0.50958057  0.87116443     0.14200
H1322       H  0.07796444  0.49586951  0.83122142     0.14300
N1323       N  0.85902425  0.53267383  0.76462278    -0.02000
C1324       C  0.86886723  0.54763207  0.74301616     0.00500
C1325       C  0.88687136  0.09506992  0.74352363    -0.22300
C1326       C  0.88794230  0.11049057  0.76578896    -0.22500
C1327       C  0.86954504  0.57154863  0.77844819     0.00400
H1328       H  0.89679733  0.11597830  0.72888047     0.14200
H1329       H  0.89729933  0.14538722  0.77169634     0.14300
N1330       N  0.76261991  0.22668978  0.85667038    -0.02000
C1331       C  0.74732188  0.22162978  0.87801394     0.00500
C1332       C  0.73308791  0.25051177  0.88253150    -0.22300
C1333       C  0.73950927  0.27457866  0.86351766    -0.22500
C1334       C  0.75757600  0.25992536  0.84771684     0.00400
H1335       H  0.72056585  0.25458993  0.89833460     0.14200
H1336       H  0.73308565  0.30140358  0.86164561     0.14300
N1337       N  0.84070082  0.36167387  0.81788002    -0.35200
N1338       N  0.74829006  0.31677092  0.79568397    -0.55700
N1339       N  0.77873481  0.40532659  0.77520049    -0.35200
N1340       N  0.87268526  0.44726366  0.79514823    -0.55700
C1341       C  0.82039224  0.31779965  0.82499000     0.28400
C1342       C  0.88683075  0.38410511  0.82249828     0.28400
C1343       C  0.73692602  0.37483353  0.76269944     0.28400
C1344       C  0.80138210  0.44588279  0.76458072     0.28400
C1345       C  0.73916807  0.28568667  0.81161712     0.37000
C1346       C  0.70707922  0.30601556  0.78624668     0.37000
C1347       C  0.91328718  0.46092849  0.80697281     0.37000
C1348       C  0.87926004  0.48629350  0.78659638     0.37000
C1349       C  0.85407380  0.31301035  0.83403740    -0.20500
C1350       C  0.89563489  0.35458938  0.83278760    -0.20500
C1351       C  0.73354401  0.39627402  0.74391282    -0.20500
C1352       C  0.77296758  0.44151788  0.74566939    -0.20500
C1353       C  0.69194366  0.25450827  0.81182429    -0.21500
C1354       C  0.67176318  0.26639256  0.79536864    -0.21500
C1355       C  0.94620668  0.50852098  0.80528209    -0.21500
C1356       C  0.92470375  0.52452369  0.79237179    -0.21500
C1357       C  0.77263666  0.28467567  0.82601691    -0.16900
C1358       C  0.92155875  0.43132944  0.81920109    -0.16900
C1359       C  0.84596492  0.48744174  0.77225928    -0.16900
C1360       C  0.70051310  0.32995275  0.76879321    -0.16900
H1361       H  0.84999681  0.28297195  0.84051372     0.16000
H1362       H  0.92837596  0.36249107  0.83960749     0.16000
H1363       H  0.70608858  0.38128397  0.73005854     0.16000
H1364       H  0.77929143  0.46774007  0.73416990     0.16000
H1365       H  0.67364356  0.22572961  0.82255150     0.14300
H1366       H  0.63506026  0.24773061  0.79102119     0.14300
H1367       H  0.98203752  0.52951765  0.81251949     0.14300
H1368       H  0.94112446  0.55988665  0.78717722     0.14300
H1369       H  0.82417608  0.37734992  0.81331851     0.27600
H1370       H  0.78891372  0.40106877  0.79147542     0.27600
N1371       N  0.65529300  0.30508588  0.75551478    -0.02000
C1372       C  0.64166475  0.26961977  0.73866252     0.00500
C1373       C  0.59483689  0.23545013  0.73740773    -0.22300
C1374       C  0.57848587  0.25040568  0.75373404    -0.22500
C1375       C  0.61577366  0.29356681  0.76435699     0.00400
H1376       H  0.57406086  0.20567718  0.72426090     0.14200
H1377       H  0.54250179  0.23444269  0.75565487     0.14300
N1378       N  0.66723555  0.51773132  0.74921592    -0.02000
C1379       C  0.67292938  0.52727277  0.72665575     0.00500
C1380       C  0.71231077  0.07384388  0.72558265    -0.22300
C1381       C  0.73058900  0.09364097  0.74795468    -0.22500
C1382       C  0.70184943  0.55854076  0.76227664     0.00400
H1383       H  0.72575690  0.09081551  0.71002264     0.14200
H1384       H  0.76167835  0.12860914  0.75323203     0.14300
N1385       N  0.97166132  0.25959554  0.86242736    -0.02000
C1386       C  0.99479580  0.27481505  0.88440230     0.00500
C1387       C  0.03020977  0.32277596  0.88558645    -0.22300
C1388       C  0.02973608  0.33733148  0.86420587    -0.22500
C1389       C  0.99397058  0.29855135  0.85018346     0.00400
H1390       H  0.05526019  0.34549632  0.90016287     0.14200
H1391       H  0.05523498  0.37182592  0.85894476     0.14300
N1392       N  0.48548723  0.36319633  0.81926953    -0.35200
N1393       N  0.54550107  0.31645753  0.79612788    -0.55700
N1394       N  0.61070660  0.40005615  0.77118767    -0.35200
N1395       N  0.55789733  0.43890193  0.77539748    -0.55700
C1396       C  0.47464724  0.31967873  0.81243618     0.28400
C1397       C  0.48080345  0.38146197  0.79998706     0.28400
C1398       C  0.61491116  0.36542879  0.76311659     0.28400
C1399       C  0.62741404  0.43291186  0.75568135     0.28400
C1400       C  0.52743564  0.29702854  0.81577046     0.37000
C1401       C  0.58154199  0.31370589  0.79432457     0.37000
C1402       C  0.53355967  0.45451944  0.78352680     0.37000
C1403       C  0.59474154  0.47621463  0.76711093     0.37000
C1404       C  0.96120884  0.30968853  0.78846907    -0.20500
C1405       C  0.96546066  0.34887216  0.78057965    -0.20500
C1406       C  0.63157467  0.37507116  0.74178517    -0.20500
C1407       C  0.64253843  0.41902927  0.73785053    -0.20500
C1408       C  0.55343207  0.28346131  0.82677147    -0.21500
C1409       C  0.58650728  0.29218081  0.81261015    -0.21500
C1410       C  0.55390869  0.50132583  0.77949696    -0.21500
C1411       C  0.59217233  0.51468135  0.76850359    -0.21500
C1412       C  0.49192082  0.29792821  0.82499509    -0.16900
C1413       C  0.50014638  0.43000156  0.79887342    -0.16900
C1414       C  0.62977832  0.47520101  0.75775145    -0.16900
C1415       C  0.60758016  0.32756638  0.77536390    -0.16900
H1416       H  0.95342474  0.27908135  0.77764561     0.16000
H1417       H  0.96072672  0.35401448  0.76262222     0.16000
H1418       H  0.63462254  0.35224621  0.72999921     0.16000
H1419       H  0.65842712  0.43707430  0.72306061     0.16000
H1420       H  0.55072161  0.27110853  0.84376866     0.14300
H1421       H  0.61298375  0.28630849  0.81613932     0.14300
H1422       H  0.54299945  0.52367331  0.78459327     0.14300
H1423       H  0.61528208  0.54859776  0.76218839     0.14300
H1424       H  0.50202944  0.38231804  0.83546717     0.27600
H1425       H  0.60089040  0.40327850  0.78734123     0.27600
N1426       N  0.79293496  0.08224968  0.80058702    -0.35200
N1427       N  0.87925329  0.13944442  0.83179492    -0.55700
N1428       N  0.84498581  0.19315252  0.84826127    -0.35200
N1429       N  0.75500622  0.12965280  0.82054650    -0.55700
C1430       C  0.80960528  0.05572195  0.80193639     0.28400
C1431       C  0.74699947  0.05230820  0.79452285     0.28400
C1432       C  0.88741112  0.21762490  0.86061074     0.28400
C1433       C  0.82067581  0.20818678  0.85741440     0.28400
C1434       C  0.88929600  0.11460831  0.81790139     0.36800
C1435       C  0.92009282  0.17884159  0.84138724     0.37000
C1436       C  0.72511544  0.10648788  0.80098842     0.37000
C1437       C  0.75176337  0.16545985  0.82753682     0.37000
C1438       C  0.77388691  0.00842036  0.79686968    -0.20500
C1439       C  0.73423142  0.00625794  0.79193044    -0.20500
C1440       C  0.89001579  0.24826835  0.87788939    -0.20500
C1441       C  0.84806616  0.24196090  0.87610428    -0.20500
C1442       C  0.93648404  0.13683281  0.81977920    -0.21500
C1443       C  0.95577051  0.17682296  0.83508963    -0.21500
C1444       C  0.70202689  0.12692499  0.79591899    -0.21500
C1445       C  0.71786061  0.16320443  0.81312048    -0.21500
C1446       C  0.85654843  0.07462710  0.80202819    -0.16900
C1447       C  0.71912956  0.06742843  0.78775712    -0.16900
C1448       C  0.77888428  0.19995747  0.84674634    -0.16900
C1449       C  0.92557962  0.21712870  0.85516889    -0.16900
H1450       H  0.77453840  0.47743300  0.79636791     0.16000
H1451       H  0.69856811  0.47327648  0.78700440     0.16000
H1452       H  0.91964973  0.27419536  0.88994449     0.16000
H1453       H  0.84086274  0.26400885  0.88580837     0.16000
H1454       H  0.95505730  0.12564902  0.81093347     0.14300
H1455       H  0.99181061  0.20122302  0.84098874     0.14300
H1456       H  0.67682255  0.11728817  0.78133779     0.14300
H1457       H  0.70659950  0.18607737  0.81423384     0.14300
H1458       H  0.81262128  0.11898058  0.80038241     0.27600
H1459       H  0.83587750  0.17286720  0.83250119     0.27600
Zn1460     Zn  0.55671885  0.05072236  0.58338506     1.49700
Zn1461     Zn  0.54649902  0.00294605  0.53472748     1.49400
Zn1462     Zn  0.48376158  0.04303785  0.54581380     1.49100
Zn1463     Zn  0.59519975  0.11639585  0.54426801     1.49500
O1464       O  0.54505826  0.05314759  0.55138282    -1.82700
O1465       O  0.56166528  0.99919880  0.58957997    -0.73300
O1466       O  0.48946448  0.96531627  0.51194880    -0.73100
O1467       O  0.95021565  0.03090025  0.57638342    -0.72700
O1468       O  0.55271463  0.95979432  0.55613587    -0.73300
O1469       O  0.50512148  0.03716643  0.59955380    -0.72900
O1470       O  0.44501599  0.98917415  0.52056454    -0.73500
O1471       O  0.56621215  0.14296649  0.52571870    -0.72900
O1472       O  0.59798841  0.03286291  0.51395127    -0.73700
O1473       O  0.49063390  0.09667319  0.52832428    -0.73100
O1474       O  0.63418399  0.11070608  0.52214502    -0.73500
O1475       O  0.63621555  0.16179555  0.57348856    -0.73400
O1476       O  0.61235760  0.10913836  0.59923665    -0.73200
C1477       C  0.55895795  0.96542805  0.57830220     0.78600
C1478       C  0.45368787  0.96504843  0.50759949     0.79100
C1479       C  0.96622714  0.02900471  0.59645142     0.78000
C1480       C  0.52550068  0.13162009  0.52025285     0.78400
C1481       C  0.62914018  0.07545180  0.51055899     0.79500
C1482       C  0.63906901  0.15110715  0.59401861     0.78600
C1483       C  0.96974507  0.19196114  0.93397927     0.17400
C1484       C  0.95418824  0.15552389  0.94885848    -0.31700
C1485       C  0.98239586  0.16527951  0.96981666     0.21800
C1486       C  0.53386095  0.20214901  0.96940427     0.04000
C1487       C  0.54959768  0.23096840  0.95128583    -0.21400
C1488       C  0.01100060  0.23552340  0.94026049     0.13100
S1489       S  0.94323703  0.18840314  0.90705043    -0.05000
C1490       C  0.98853741  0.24648546  0.90455776    -0.08500
C1491       C  0.02174705  0.26614326  0.92380644    -0.25100
S1492       S  0.56930312  0.20387502  0.99126023    -0.02300
C1493       C  0.52138396  0.15732920  0.00180594    -0.15800
C1494       C  0.97575175  0.13424887  0.98594505    -0.13800
H1495       H  0.92232379  0.12091499  0.94406945     0.21600
H1496       H  0.58611265  0.25721145  0.95068000     0.17700
H1497       H  0.05351567  0.30125189  0.92586675     0.20200
H1498       H  0.94529853  0.11189890  0.49215716     0.13500
C1499       C  0.59255301  0.94862166  0.67233448     0.17400
C1500       C  0.55642781  0.92643756  0.65414635    -0.31700
C1501       C  0.56781465  0.92644355  0.63133773     0.21800
C1502       C  0.61260771  0.94478777  0.62695977     0.04000
C1503       C  0.64826288  0.46457322  0.64507792    -0.21400
C1504       C  0.63741081  0.96771512  0.66774971     0.13100
S1505       S  0.58782265  0.96199400  0.70043068    -0.05000
C1506       C  0.64610209  0.49448270  0.70542872    -0.08500
C1507       C  0.66799231  0.49377269  0.68663598    -0.25100
S1508       S  0.62162593  0.95252271  0.59845744    -0.02300
C1509       C  0.56579632  0.93548108  0.59253757    -0.15800
C1510       C  0.54041796  0.91897442  0.61145333    -0.13800
H1511       H  0.52185370  0.91440254  0.65736657     0.21600
H1512       H  0.68384155  0.48222264  0.64169837     0.17700
H1513       H  0.70505471  0.51412689  0.68656004     0.20200
H1514       H  0.50656137  0.91184742  0.61175355     0.13500
C1515       C  0.69288519  0.21398460  0.65383549     0.17400
C1516       C  0.69736920  0.21706979  0.67819278    -0.31700
C1517       C  0.68836784  0.24664958  0.69010810     0.21800
C1518       C  0.67819056  0.27417384  0.67831914     0.04000
C1519       C  0.67570371  0.27264633  0.65401166    -0.21400
C1520       C  0.68196860  0.24092889  0.64200841     0.13100
S1521       S  0.68938727  0.17065224  0.63656713    -0.05000
C1522       C  0.67041204  0.18702215  0.61330443    -0.08500
C1523       C  0.67027650  0.22642630  0.61860016    -0.25100
S1524       S  0.66086466  0.30151370  0.69527974    -0.02300
C1525       C  0.66661797  0.27511445  0.71845536    -0.15800
C1526       C  0.68178387  0.24708123  0.71319086    -0.13800
H1527       H  0.70294623  0.19380261  0.68731325     0.21600
H1528       H  0.66478665  0.29177670  0.64477502     0.17700
H1529       H  0.65540219  0.23890378  0.60680305     0.20200
H1530       H  0.68353448  0.22467925  0.72503350     0.13500
C1531       C  0.67630301  0.09138402  0.95174837     0.17400
C1532       C  0.67707146  0.09282990  0.92759947    -0.31700
C1533       C  0.71249115  0.13494417  0.91950697     0.21800
C1534       C  0.74696771  0.17282574  0.93484528     0.04000
C1535       C  0.74694105  0.17086185  0.95892299    -0.21400
C1536       C  0.71007189  0.12994900  0.96699006     0.13100
S1537       S  0.63144187  0.04763170  0.96480689    -0.05000
C1538       C  0.65703480  0.08280759  0.99085261    -0.08500
C1539       C  0.69925681  0.12521213  0.98945141    -0.25100
S1540       S  0.78208202  0.22332335  0.92223101    -0.02300
C1541       C  0.74933419  0.19396664  0.89602047    -0.15800
C1542       C  0.71400033  0.14678307  0.89707716    -0.13800
H1543       H  0.64909683  0.06399845  0.91569580     0.21600
H1544       H  0.77221748  0.20159373  0.97082866     0.17700
H1545       H  0.71889576  0.15291688  0.00368050     0.20200
H1546       H  0.68749099  0.12426188  0.88287343     0.13500
C1547       C  0.92431698  0.00377952  0.65681188     0.17400
C1548       C  0.92408294  0.00012716  0.68076068    -0.31700
C1549       C  0.89286277  0.00430434  0.69201284     0.21800
C1550       C  0.86193302  0.01012996  0.67969287     0.04000
C1551       C  0.86142387  0.01271862  0.65544533    -0.21400
C1552       C  0.89415972  0.01040555  0.64426748     0.13100
S1553       S  0.96390381  0.00569019  0.64135073    -0.05000
C1554       C  0.94135838  0.01712810  0.61744926    -0.08500
C1555       C  0.90349519  0.01779232  0.62136433    -0.25100
S1556       S  0.83189397  0.02165971  0.69706075    -0.02300
C1557       C  0.86184192  0.52003933  0.72095993    -0.15800
C1558       C  0.89290120  0.00938882  0.71570730    -0.13800
H1559       H  0.94928151  0.99716548  0.69046345     0.21600
H1560       H  0.83863047  0.01935823  0.64604167     0.17700
H1561       H  0.88554081  0.02560975  0.60871307     0.20200
H1562       H  0.91782164  0.01111136  0.72831928     0.13500
C1563       C  0.91211827  0.44813119  0.94463763     0.17400
C1564       C  0.91194872  0.46416905  0.92282112    -0.31700
C1565       C  0.92707489  0.44966933  0.90477402     0.21800
C1566       C  0.93891168  0.41820998  0.90803819     0.04000
C1567       C  0.93716424  0.40067755  0.92947348    -0.21400
C1568       C  0.92502256  0.41755615  0.94783517     0.13100
S1569       S  0.40795456  0.97461859  0.96991884    -0.05000
C1570       C  0.42565179  0.94437089  0.98462752    -0.08500
C1571       C  0.93235088  0.41362315  0.97081945    -0.25100
S1572       S  0.96322208  0.41039563  0.88573867    -0.02300
C1573       C  0.95837326  0.45056243  0.87187199    -0.15800
C1574       C  0.93798654  0.46829446  0.88378833    -0.13800
H1575       H  0.40286061  0.48979961  0.92091435     0.21600
H1576       H  0.94934055  0.37864587  0.93230975     0.17700
H1577       H  0.94463466  0.39258714  0.47662915     0.20200
H1578       H  0.93499946  0.49605802  0.87833251     0.13500
N1579       N  0.96621305  0.95100157  0.32933992    -0.02000
C1580       C  0.98250970  0.97132846  0.35149916     0.00500
C1581       C  0.02984352  0.99450048  0.35464395    -0.22300
C1582       C  0.04259533  0.98643036  0.33413023    -0.22500
C1583       C  0.00263431  0.95846491  0.31901920     0.00400
H1584       H  0.05171091  0.00950685  0.37102520     0.14200
H1585       H  0.07629714  0.99492329  0.33150827     0.14300
N1586       N  0.85718900  0.03163536  0.26360690    -0.02000
C1587       C  0.86682982  0.04621256  0.24194286     0.00500
C1588       C  0.88740423  0.59601761  0.24367535    -0.22300
C1589       C  0.88818699  0.61115727  0.26595326    -0.22500
C1590       C  0.86737954  0.07056324  0.27721488     0.00400
H1591       H  0.89767093  0.61716835  0.22912202     0.14200
H1592       H  0.89769070  0.64606633  0.27195932     0.14300
N1593       N  0.76165084  0.72693882  0.35634516    -0.02000
C1594       C  0.74656725  0.72239254  0.37772279     0.00500
C1595       C  0.73210639  0.75115490  0.38199130    -0.22300
C1596       C  0.73818009  0.77463873  0.36279151    -0.22500
C1597       C  0.75627508  0.75976717  0.34713047     0.00400
H1598       H  0.71965045  0.75553959  0.39774999     0.14200
H1599       H  0.73156030  0.80127391  0.36071076     0.14300
N1600       N  0.83924630  0.86105810  0.31709115    -0.35200
N1601       N  0.74694492  0.81582396  0.29477919    -0.55700
N1602       N  0.77719247  0.90434253  0.27430143    -0.35200
N1603       N  0.87108814  0.94662614  0.29438127    -0.55700
C1604       C  0.81900167  0.81725344  0.32427257     0.28400
C1605       C  0.88537506  0.88359099  0.32173133     0.28400
C1606       C  0.73552142  0.87372522  0.26171966     0.28400
C1607       C  0.79972788  0.94493300  0.26372116     0.28400
C1608       C  0.73779162  0.78492280  0.31081344     0.37000
C1609       C  0.70574423  0.80488713  0.28522123     0.37000
C1610       C  0.91171590  0.96038524  0.30620587     0.37000
C1611       C  0.87757378  0.98558157  0.28578743     0.37000
C1612       C  0.85272112  0.81258113  0.33338427    -0.20500
C1613       C  0.89422940  0.85418111  0.33209317    -0.20500
C1614       C  0.73210188  0.89512335  0.24293117    -0.20500
C1615       C  0.77133438  0.94047506  0.24477554    -0.20500
C1616       C  0.69055422  0.75368978  0.31096851    -0.21500
C1617       C  0.67040648  0.76528003  0.29433058    -0.21500
C1618       C  0.94457675  0.00797654  0.30447540    -0.21500
C1619       C  0.92299825  0.02386892  0.29153024    -0.21500
C1620       C  0.77126948  0.78413927  0.32533165    -0.16900
C1621       C  0.92004403  0.93085791  0.31846460    -0.16900
C1622       C  0.84422273  0.98656640  0.27141132    -0.16900
C1623       C  0.69920638  0.82876210  0.26773780    -0.16900
H1624       H  0.84871575  0.78263616  0.33995970     0.16000
H1625       H  0.92696595  0.86221243  0.33898826     0.16000
H1626       H  0.70473831  0.88003928  0.22902689     0.16000
H1627       H  0.77753341  0.96671109  0.23331669     0.16000
H1628       H  0.67221697  0.72509590  0.32178958     0.14300
H1629       H  0.63371012  0.74653541  0.28988601     0.14300
H1630       H  0.98042520  0.02902318  0.31168634     0.14300
H1631       H  0.93935939  0.05917043  0.28626654     0.14300
H1632       H  0.82264936  0.87667576  0.31250710     0.27600
H1633       H  0.78732844  0.90010374  0.29060471     0.27600
N1634       N  0.65410190  0.80377685  0.25436125    -0.02000
C1635       C  0.64063859  0.76824323  0.23760561     0.00500
C1636       C  0.59374689  0.73421660  0.23616244    -0.22300
C1637       C  0.57722207  0.74935700  0.25229377    -0.22500
C1638       C  0.61449470  0.79243864  0.26298917     0.00400
H1639       H  0.57309296  0.70445212  0.22299971     0.14200
H1640       H  0.54120800  0.73353231  0.25406304     0.14300
N1641       N  0.66546061  0.01665144  0.24806912    -0.02000
C1642       C  0.67117460  0.02625196  0.22552356     0.00500
C1643       C  0.71111993  0.57468746  0.22530168    -0.22300
C1644       C  0.72947112  0.59436036  0.24768448    -0.22500
C1645       C  0.69963878  0.05767592  0.26116087     0.00400
H1646       H  0.72438150  0.59181857  0.20975386     0.14200
H1647       H  0.76041833  0.62941775  0.25298327     0.14300
N1648       N  0.97034831  0.75903772  0.36270375    -0.02000
C1649       C  0.99335692  0.77421969  0.38468525     0.00500
C1650       C  0.02826721  0.82233189  0.38605681    -0.22300
C1651       C  0.02778083  0.83702994  0.36470737    -0.22500
C1652       C  0.99239617  0.79813847  0.35056216     0.00400
H1653       H  0.05298420  0.84491090  0.40078205     0.14200
H1654       H  0.05313195  0.87167154  0.35954215     0.14300
N1655       N  0.48567756  0.86238388  0.31906817    -0.35200
N1656       N  0.54486616  0.81517646  0.29529620    -0.55700
N1657       N  0.60923392  0.89878296  0.26987193    -0.35200
N1658       N  0.55620597  0.93719040  0.27419530    -0.55700
C1659       C  0.47481260  0.81875846  0.31241995     0.28400
C1660       C  0.48033549  0.88011265  0.29972017     0.28400
C1661       C  0.61349211  0.86422107  0.26176214     0.28400
C1662       C  0.62591387  0.93171937  0.25440416     0.28400
C1663       C  0.52789581  0.79644197  0.31524094     0.37000
C1664       C  0.58113922  0.81293089  0.29322903     0.37000
C1665       C  0.53178477  0.95260775  0.28242516     0.37000
C1666       C  0.59283829  0.97459475  0.26582886     0.37000
C1667       C  0.96059609  0.80903939  0.28863795    -0.20500
C1668       C  0.96471652  0.84808325  0.28063654    -0.20500
C1669       C  0.63014692  0.87395230  0.24043043    -0.20500
C1670       C  0.64109192  0.91794158  0.23655159    -0.20500
C1671       C  0.55483899  0.78385823  0.32612367    -0.21500
C1672       C  0.58736057  0.79245039  0.31162637    -0.21500
C1673       C  0.55177117  0.99931680  0.27828271    -0.21500
C1674       C  0.58998496  0.01287579  0.26721241    -0.21500
C1675       C  0.49279216  0.79749310  0.32489275    -0.16900
C1676       C  0.49945597  0.92857395  0.29831224    -0.16900
C1677       C  0.62809561  0.97392103  0.25653042    -0.16900
C1678       C  0.60647159  0.82650265  0.27403189    -0.16900
H1679       H  0.95305507  0.77845289  0.27789447     0.16000
H1680       H  0.96016151  0.85314240  0.26264306     0.16000
H1681       H  0.63331624  0.85121310  0.22864509     0.16000
H1682       H  0.65703658  0.93607795  0.22179435     0.16000
H1683       H  0.55329799  0.77252290  0.34329709     0.14300
H1684       H  0.61443445  0.78742267  0.31504683     0.14300
H1685       H  0.54087206  0.02160120  0.28352519     0.14300
H1686       H  0.61301823  0.04689316  0.26095970     0.14300
H1687       H  0.50272054  0.88195542  0.33511930     0.27600
H1688       H  0.59942061  0.90192054  0.28604006     0.27600
N1689       N  0.79215846  0.58242334  0.30036343    -0.35200
N1690       N  0.87808376  0.63907108  0.33190855    -0.55700
N1691       N  0.84376093  0.69284923  0.34835231    -0.35200
N1692       N  0.75419552  0.62983702  0.32029282    -0.55700
C1693       C  0.80877382  0.55583200  0.30163586     0.28400
C1694       C  0.74626821  0.55256700  0.29412388     0.28400
C1695       C  0.88615661  0.71731846  0.36072983     0.28400
C1696       C  0.81958740  0.70824356  0.35731185     0.28400
C1697       C  0.88828774  0.61440264  0.31799830     0.36800
C1698       C  0.91884942  0.67830965  0.34168808     0.37000
C1699       C  0.72429431  0.60667378  0.30074078     0.37000
C1700       C  0.75073927  0.66545958  0.32736418     0.37000
C1701       C  0.77307430  0.50858909  0.29635257    -0.20500
C1702       C  0.73349308  0.50652682  0.29136132    -0.20500
C1703       C  0.88886589  0.74830974  0.37783876    -0.20500
C1704       C  0.84703799  0.74225618  0.37590706    -0.20500
C1705       C  0.93546790  0.63653537  0.32006454    -0.21500
C1706       C  0.95459648  0.67631100  0.33549868    -0.21500
C1707       C  0.70096304  0.62688235  0.29576536    -0.21500
C1708       C  0.71666271  0.66301706  0.31301263    -0.21500
C1709       C  0.85574671  0.57471446  0.30193182    -0.16900
C1710       C  0.71843773  0.56777894  0.28742795    -0.16900
C1711       C  0.77782751  0.69999684  0.34656919    -0.16900
C1712       C  0.92427899  0.71659051  0.35543913    -0.16900
H1713       H  0.77246498  0.97667619  0.29522844     0.16000
H1714       H  0.69646050  0.97251366  0.28604022     0.16000
H1715       H  0.91851117  0.77431052  0.38986845     0.16000
H1716       H  0.83994960  0.76455032  0.38546693     0.16000
H1717       H  0.95415583  0.62547385  0.31124213     0.14300
H1718       H  0.99059366  0.70063101  0.34151662     0.14300
H1719       H  0.67564506  0.61715844  0.28123027     0.14300
H1720       H  0.70510930  0.68560482  0.31421923     0.14300
H1721       H  0.81189828  0.61919123  0.30033339     0.27600
H1722       H  0.83459339  0.67224162  0.33270167     0.27600
Zn1723     Zn  0.55508973  0.54877013  0.08326700     1.49700
Zn1724     Zn  0.54517709  0.50126133  0.03453623     1.49400
Zn1725     Zn  0.48196849  0.54081926  0.04583307     1.49100
Zn1726     Zn  0.59312730  0.61454601  0.04409142     1.49500
O1727       O  0.54333767  0.55118498  0.05126858    -1.82700
O1728       O  0.56046557  0.49750831  0.08934956    -0.73300
O1729       O  0.48816521  0.46352226  0.01168288    -0.73100
O1730       O  0.94880545  0.52944756  0.07624897    -0.72700
O1731       O  0.55172211  0.45825080  0.05589649    -0.73300
O1732       O  0.50350237  0.53492062  0.09964183    -0.72900
O1733       O  0.44342124  0.48682662  0.02067630    -0.73500
O1734       O  0.56398997  0.64119436  0.02575761    -0.72900
O1735       O  0.59696854  0.53157117  0.01394247    -0.73700
O1736       O  0.48842940  0.59433114  0.02831761    -0.73100
O1737       O  0.63233519  0.60929292  0.02204111    -0.73500
O1738       O  0.63431414  0.65982070  0.07316256    -0.73400
O1739       O  0.61089285  0.60724719  0.09894238    -0.73200
C1740       C  0.55802637  0.46390846  0.07806062     0.78600
C1741       C  0.45219319  0.46300047  0.00754322     0.79100
C1742       C  0.96473199  0.52812913  0.09646244     0.78000
C1743       C  0.52318477  0.62961877  0.02035228     0.78400
C1744       C  0.62790847  0.57425760  0.01059727     0.79500
C1745       C  0.63753140  0.64916620  0.09364266     0.78600
C1746       C  0.96929786  0.69236907  0.43453825     0.17400
C1747       C  0.95314690  0.65693180  0.45004240    -0.31700
C1748       C  0.98269138  0.66608948  0.47034012     0.21800
C1749       C  0.52247455  0.70918332  0.47624353     0.04000
C1750       C  0.53726989  0.74529618  0.46173241    -0.21400
C1751       C  0.01256100  0.73435588  0.43953975     0.13100
S1752       S  0.94085109  0.68943512  0.40839326    -0.05000
C1753       C  0.98806853  0.74566048  0.40454879    -0.08500
C1754       C  0.02339395  0.76417191  0.42268146    -0.25100
S1755       S  0.55442038  0.71359157  0.50081795    -0.02300
C1756       C  0.51200852  0.65535365  0.50381831    -0.15800
C1757       C  0.97543594  0.63564804  0.48692689    -0.13800
H1758       H  0.91965787  0.62350989  0.44625020     0.21600
H1759       H  0.56995889  0.77939574  0.46610637     0.17700
H1760       H  0.05647286  0.79799819  0.42364959     0.20200
H1761       H  0.94611043  0.60385840  0.98854790     0.13500
C1762       C  0.59206498  0.44849477  0.17210005     0.17400
C1763       C  0.55594347  0.42573309  0.15391370    -0.31700
C1764       C  0.56741146  0.42561220  0.13113555     0.21800
C1765       C  0.61231807  0.44441782  0.12679864     0.04000
C1766       C  0.64668120  0.96248801  0.14414962    -0.21400
C1767       C  0.63702268  0.46800913  0.16755477     0.13100
S1768       S  0.58710818  0.46201488  0.20011790    -0.05000
C1769       C  0.64448721  0.99339831  0.20432102    -0.08500
C1770       C  0.66643573  0.99249708  0.18560289    -0.25100
S1771       S  0.62128783  0.45194846  0.09828252    -0.02300
C1772       C  0.56523549  0.43420869  0.09229203    -0.15800
C1773       C  0.53987526  0.41757232  0.11120555    -0.13800
H1774       H  0.52125411  0.41334008  0.15709032     0.21600
H1775       H  0.68225359  0.98001778  0.14078195     0.17700
H1776       H  0.70350428  0.01285501  0.18555130     0.20200
H1777       H  0.50584364  0.41002713  0.11145563     0.13500
C1778       C  0.69241412  0.71259433  0.15318341     0.17400
C1779       C  0.69695113  0.71581117  0.17753383    -0.31700
C1780       C  0.68803023  0.74550477  0.18938290     0.21800
C1781       C  0.67802859  0.77311339  0.17754046     0.04000
C1782       C  0.67563333  0.77155869  0.15324905    -0.21400
C1783       C  0.68167053  0.73963275  0.14131128     0.13100
S1784       S  0.68833379  0.66883263  0.13601235    -0.05000
C1785       C  0.66928149  0.68515223  0.11277203    -0.08500
C1786       C  0.66964745  0.72487102  0.11795458    -0.25100
S1787       S  0.66051141  0.80038914  0.19437084    -0.02300
C1788       C  0.66587736  0.77379387  0.21754672    -0.15800
C1789       C  0.68114020  0.74581397  0.21241179    -0.13800
H1790       H  0.70231863  0.69243718  0.18669087     0.21600
H1791       H  0.66477128  0.79069687  0.14397315     0.17700
H1792       H  0.65478397  0.73736263  0.10615807     0.20200
H1793       H  0.68266505  0.72331299  0.22427388     0.13500
C1794       C  0.67528196  0.59368571  0.45195246     0.17400
C1795       C  0.67661436  0.59465211  0.42781700    -0.31700
C1796       C  0.71197462  0.63672765  0.41967747     0.21800
C1797       C  0.74590997  0.67505410  0.43499023     0.04000
C1798       C  0.74527867  0.67362550  0.45907791    -0.21400
C1799       C  0.70841041  0.63272369  0.46715369     0.13100
S1800       S  0.63044404  0.54976503  0.46494619    -0.05000
C1801       C  0.65514121  0.58546558  0.49087331    -0.08500
C1802       C  0.69703692  0.62823754  0.48951526    -0.25100
S1803       S  0.78103552  0.72530276  0.42220532    -0.02300
C1804       C  0.74884407  0.69528369  0.39596065    -0.15800
C1805       C  0.71382479  0.64804063  0.39713612    -0.13800
H1806       H  0.64908567  0.56542036  0.41590812     0.21600
H1807       H  0.77008654  0.70467566  0.47092725     0.17700
H1808       H  0.71613245  0.65616510  0.50368638     0.20200
H1809       H  0.68763701  0.62509654  0.38288871     0.13500
C1810       C  0.92177249  0.50182681  0.15649869     0.17400
C1811       C  0.92148279  0.49808792  0.18043741    -0.31700
C1812       C  0.89111799  0.50351445  0.19179440     0.21800
C1813       C  0.86092850  0.51048120  0.17956876     0.04000
C1814       C  0.86039848  0.51307817  0.15532632    -0.21400
C1815       C  0.89241104  0.50965245  0.14405830     0.13100
S1816       S  0.96085341  0.50282466  0.14098778    -0.05000
C1817       C  0.93927936  0.51562641  0.11724425    -0.08500
C1818       C  0.90198810  0.51726527  0.12120329    -0.25100
S1819       S  0.83204216  0.52345611  0.19703661    -0.02300
C1820       C  0.86030482  0.01837568  0.22012454    -0.15800
C1821       C  0.89154654  0.50891668  0.21550531    -0.13800
H1822       H  0.94616409  0.49427792  0.19006605     0.21600
H1823       H  0.83828827  0.52069105  0.14600911     0.17700
H1824       H  0.88481360  0.52616956  0.10867323     0.20200
H1825       H  0.91606431  0.50982020  0.22805623     0.13500
C1826       C  0.91138434  0.95108292  0.44423834     0.17400
C1827       C  0.91192429  0.96764694  0.42249259    -0.31700
C1828       C  0.92569102  0.95189613  0.40429201     0.21800
C1829       C  0.93549918  0.91881666  0.40734684     0.04000
C1830       C  0.93305184  0.90084388  0.42871662    -0.21400
C1831       C  0.92233527  0.91890212  0.44722982     0.13100
S1832       S  0.40382818  0.46610627  0.46980696    -0.05000
C1833       C  0.42453105  0.43877642  0.48482531    -0.08500
C1834       C  0.92939959  0.91444475  0.47016393    -0.25100
S1835       S  0.95854747  0.90950626  0.38489871    -0.02300
C1836       C  0.95583861  0.95111864  0.37121454    -0.15800
C1837       C  0.93716897  0.97055056  0.38334221    -0.13800
H1838       H  0.40473359  0.99068366  0.42044770     0.21600
H1839       H  0.94370982  0.87747884  0.43138361     0.17700
H1840       H  0.94618113  0.89289050  0.97677413     0.20200
H1841       H  0.93581593  0.99941017  0.37805829     0.13500
N1842       N  0.96631896  0.94925079  0.82997177    -0.02000
C1843       C  0.98275446  0.96821946  0.85230125     0.00500
C1844       C  0.03006903  0.99120116  0.85525863    -0.22300
C1845       C  0.04262164  0.98430745  0.83440873    -0.22500
C1846       C  0.00254629  0.95716361  0.81930587     0.00400
H1847       H  0.05202662  0.00521336  0.87162151     0.14200
H1848       H  0.07618530  0.99270941  0.83152098     0.14300
N1849       N  0.85958753  0.03290050  0.76484688    -0.02000
C1850       C  0.86950808  0.04775352  0.74321436     0.00500
C1851       C  0.88543296  0.59474379  0.74333784    -0.22300
C1852       C  0.88600128  0.60985706  0.76559596    -0.22500
C1853       C  0.87096405  0.07216753  0.77867851     0.00400
H1854       H  0.89505473  0.61566677  0.72870280     0.14200
H1855       H  0.89468042  0.64447482  0.77152005     0.14300
N1856       N  0.76108466  0.72566205  0.85650805    -0.02000
C1857       C  0.74590838  0.72100902  0.87786967     0.00500
C1858       C  0.73149326  0.74980330  0.88215966    -0.22300
C1859       C  0.73766971  0.77339432  0.86298759    -0.22500
C1860       C  0.75578811  0.75857194  0.84730998     0.00400
H1861       H  0.71902075  0.75415650  0.89791939     0.14200
H1862       H  0.73113585  0.80010177  0.86094777     0.14300
N1863       N  0.83923595  0.86034229  0.81784365    -0.35200
N1864       N  0.74742610  0.81596148  0.79527619    -0.55700
N1865       N  0.77848378  0.90520062  0.77505497    -0.35200
N1866       N  0.87190030  0.94654817  0.79535366    -0.55700
C1867       C  0.81873102  0.81616906  0.82457330     0.28400
C1868       C  0.88528402  0.88247329  0.82239106     0.28400
C1869       C  0.73687503  0.87481327  0.76238393     0.28400
C1870       C  0.80137353  0.94599803  0.76463052     0.28400
C1871       C  0.73785206  0.78460915  0.81112986     0.37000
C1872       C  0.70643097  0.80552720  0.78571170     0.37000
C1873       C  0.91228486  0.95977955  0.80725760     0.37000
C1874       C  0.87889912  0.98587100  0.78693601     0.37000
C1875       C  0.85220582  0.81082408  0.83328548    -0.20500
C1876       C  0.89383417  0.85247698  0.83232230    -0.20500
C1877       C  0.73384408  0.89655913  0.74364651    -0.20500
C1878       C  0.77324424  0.94187928  0.74564441    -0.20500
C1879       C  0.69058800  0.75359991  0.81116706    -0.21500
C1880       C  0.67082208  0.76583019  0.79466538    -0.21500
C1881       C  0.94547850  0.00739196  0.80577986    -0.21500
C1882       C  0.92438526  0.02385938  0.79291066    -0.21500
C1883       C  0.77099630  0.78319359  0.82556886    -0.16900
C1884       C  0.92018551  0.92974684  0.81930644    -0.16900
C1885       C  0.84599162  0.98745492  0.77248732    -0.16900
C1886       C  0.70028871  0.82978064  0.76827970    -0.16900
H1887       H  0.84796138  0.78030291  0.83922288     0.16000
H1888       H  0.92644160  0.86006735  0.83909770     0.16000
H1889       H  0.70664984  0.88170159  0.72965771     0.16000
H1890       H  0.77975836  0.96829260  0.73423449     0.16000
H1891       H  0.67199464  0.72472043  0.82180421     0.14300
H1892       H  0.63417432  0.74732867  0.79018134     0.14300
H1893       H  0.98124294  0.02809248  0.81311434     0.14300
H1894       H  0.94112764  0.05936888  0.78787255     0.14300
H1895       H  0.82285967  0.87644193  0.81358317     0.27600
H1896       H  0.78838729  0.90058741  0.79136457     0.27600
N1897       N  0.65521703  0.80513385  0.75488205    -0.02000
C1898       C  0.64157924  0.76962571  0.73805798     0.00500
C1899       C  0.59468978  0.73562915  0.73669258    -0.22300
C1900       C  0.57831401  0.75072431  0.75293147    -0.22500
C1901       C  0.61566683  0.79375725  0.76362366     0.00400
H1902       H  0.57392844  0.70589357  0.72352471     0.14200
H1903       H  0.54233233  0.73489799  0.75479180     0.14300
N1904       N  0.66860314  0.01884766  0.74936444    -0.02000
C1905       C  0.67427428  0.02819349  0.72677417     0.00500
C1906       C  0.71066450  0.57313821  0.72555495    -0.22300
C1907       C  0.72873721  0.59284099  0.74796048    -0.22500
C1908       C  0.70352497  0.05961282  0.76234640     0.00400
H1909       H  0.72406686  0.59030868  0.71003369     0.14200
H1910       H  0.75960247  0.62793024  0.75330607     0.14300
N1911       N  0.96981956  0.75764034  0.86243255    -0.02000
C1912       C  0.99313214  0.77264105  0.88432414     0.00500
C1913       C  0.02801066  0.82073103  0.88577367    -0.22300
C1914       C  0.02730537  0.83561995  0.86449598    -0.22500
C1915       C  0.99179777  0.79680013  0.85033694     0.00400
H1916       H  0.05295305  0.84296574  0.90050856     0.14200
H1917       H  0.05269801  0.87026256  0.85934732     0.14300
N1918       N  0.48620823  0.86375543  0.81926298    -0.35200
N1919       N  0.54571233  0.81650421  0.79569738    -0.55700
N1920       N  0.61160084  0.90075415  0.77106531    -0.35200
N1921       N  0.55914451  0.93982218  0.77549210    -0.55700
C1922       C  0.47537490  0.82023784  0.81237092     0.28400
C1923       C  0.48167953  0.88219150  0.80000524     0.28400
C1924       C  0.61548163  0.86602338  0.76279118     0.28400
C1925       C  0.62872640  0.93397510  0.75574784     0.28400
C1926       C  0.52794782  0.79724679  0.81542463     0.37000
C1927       C  0.58177788  0.81383099  0.79379799     0.37000
C1928       C  0.53473323  0.95536820  0.78360378     0.37000
C1929       C  0.59615660  0.97727099  0.76735190     0.37000
C1930       C  0.95994102  0.80787276  0.78848125    -0.20500
C1931       C  0.96400924  0.84695872  0.78057308    -0.20500
C1932       C  0.63240036  0.87600415  0.74153027    -0.20500
C1933       C  0.64387170  0.92024417  0.73786170    -0.20500
C1934       C  0.55420383  0.78391948  0.82636782    -0.21500
C1935       C  0.58707888  0.79255282  0.81209446    -0.21500
C1936       C  0.55522541  0.00226937  0.77970200    -0.21500
C1937       C  0.59366196  0.01577375  0.76884514    -0.21500
C1938       C  0.49269380  0.79837059  0.82484527    -0.16900
C1939       C  0.50124248  0.93081037  0.79892609    -0.16900
C1940       C  0.63122102  0.97632810  0.75796584    -0.16900
C1941       C  0.60774546  0.82779382  0.77482165    -0.16900
H1942       H  0.95236290  0.77733217  0.77767996     0.16000
H1943       H  0.95937409  0.85210803  0.76260528     0.16000
H1944       H  0.63533825  0.85324761  0.72963009     0.16000
H1945       H  0.66013079  0.93858345  0.72320606     0.16000
H1946       H  0.55194393  0.77199808  0.84344321     0.14300
H1947       H  0.61376070  0.78697532  0.81560400     0.14300
H1948       H  0.54433739  0.02461509  0.78484092     0.14300
H1949       H  0.61693908  0.04982104  0.76269292     0.14300
H1950       H  0.50276004  0.88284474  0.83546121     0.27600
H1951       H  0.60165015  0.90371597  0.78722101     0.27600
N1952       N  0.79126595  0.58099758  0.80041632    -0.35200
N1953       N  0.87737548  0.63762722  0.83184446    -0.55700
N1954       N  0.84305530  0.69138765  0.84840470    -0.35200
N1955       N  0.75323428  0.62826386  0.82052193    -0.55700
C1956       C  0.80795555  0.55447495  0.80167292     0.28400
C1957       C  0.74532256  0.55105015  0.79438423     0.28400
C1958       C  0.88562380  0.71605090  0.86062643     0.28400
C1959       C  0.81899610  0.70691979  0.85738425     0.28400
C1960       C  0.88752113  0.61303630  0.81784079     0.36800
C1961       C  0.91817857  0.67690642  0.84153436     0.37000
C1962       C  0.72321846  0.60502150  0.80101289     0.37000
C1963       C  0.74983787  0.66392480  0.82759726     0.37000
C1964       C  0.77226575  0.50718166  0.79657004    -0.20500
C1965       C  0.73258864  0.50501458  0.79173510    -0.20500
C1966       C  0.88854355  0.74729327  0.87766354    -0.20500
C1967       C  0.84668026  0.74119893  0.87584852    -0.20500
C1968       C  0.93469996  0.63524820  0.81975219    -0.21500
C1969       C  0.95390498  0.67501197  0.83519475    -0.21500
C1970       C  0.69984212  0.62520649  0.79607992    -0.21500
C1971       C  0.71566383  0.66143946  0.81330227    -0.21500
C1972       C  0.85490564  0.57340468  0.80180040    -0.16900
C1973       C  0.71740189  0.56615093  0.78768600    -0.16900
C1974       C  0.77713858  0.69860875  0.84672400    -0.16900
C1975       C  0.92368817  0.71522645  0.85526677    -0.16900
H1976       H  0.77613242  0.97865879  0.79674980     0.16000
H1977       H  0.70020323  0.97452269  0.78714673     0.16000
H1978       H  0.91834885  0.77345439  0.88956998     0.16000
H1979       H  0.83964838  0.76354887  0.88540668     0.16000
H1980       H  0.95333513  0.62427738  0.81080516     0.14300
H1981       H  0.98995291  0.69946608  0.84107259     0.14300
H1982       H  0.67444939  0.61543678  0.78157833     0.14300
H1983       H  0.70418885  0.68412382  0.81451063     0.14300
H1984       H  0.81093865  0.61774338  0.80027878     0.27600
H1985       H  0.83363635  0.67047398  0.83283471     0.27600
Zn1986     Zn  0.55461972  0.54925158  0.58298539     1.49700
Zn1987     Zn  0.54565490  0.50225562  0.53445917     1.49400
Zn1988     Zn  0.48064371  0.53943865  0.54540651     1.49100
Zn1989     Zn  0.59159916  0.61561122  0.54383671     1.49500
O1990       O  0.54271972  0.55159656  0.55098310    -1.82700
O1991       O  0.56040026  0.49826258  0.58926314    -0.73300
O1992       O  0.48866324  0.46327787  0.51172052    -0.73100
O1993       O  0.94748388  0.52783396  0.57587360    -0.72700
O1994       O  0.55312387  0.45984412  0.55583737    -0.73300
O1995       O  0.50294303  0.53510991  0.59928309    -0.72900
O1996       O  0.44256757  0.48496941  0.52042218    -0.73500
O1997       O  0.56140409  0.64214696  0.52596234    -0.72900
O1998       O  0.59732372  0.53341560  0.51390081    -0.73700
O1999       O  0.48586741  0.59221137  0.52798575    -0.73100
O2000       O  0.63086615  0.61097406  0.52151406    -0.73500
O2001       O  0.63298885  0.66071319  0.57303868    -0.73400
O2002       O  0.61016194  0.60787276  0.59865285    -0.73200
C2003       C  0.55879625  0.46514067  0.57800327     0.78600
C2004       C  0.45202240  0.46149488  0.50749840     0.79100
C2005       C  0.96387474  0.52689081  0.59603681     0.78000
C2006       C  0.52000663  0.62887977  0.52050161     0.78400
C2007       C  0.62738559  0.57621287  0.51032351     0.79500
C2008       C  0.63648260  0.64991232  0.59345907     0.78600
C2009       C  0.97075899  0.69254974  0.93468038     0.17400
C2010       C  0.95440709  0.65881538  0.95109542    -0.31700
C2011       C  0.98533105  0.66765548  0.97067844     0.21800
C2012       C  0.52999797  0.70627673  0.97287183     0.04000
C2013       C  0.54634546  0.73912385  0.95649243    -0.21400
C2014       C  0.01567607  0.73248844  0.93805956     0.13100
S2015       S  0.94027766  0.69012186  0.90944346    -0.05000
C2016       C  0.98891410  0.74382865  0.90383710    -0.08500
C2017       C  0.02619958  0.76102403  0.92062970    -0.25100
S2018       S  0.56355854  0.70965299  0.99635079    -0.02300
C2019       C  0.51688401  0.65627282  0.00301189    -0.15800
C2020       C  0.97775514  0.63857337  0.98803038    -0.13800
H2021       H  0.91955011  0.62698515  0.94859294     0.21600
H2022       H  0.58184077  0.76988814  0.95849291     0.17700
H2023       H  0.06016001  0.79333595  0.92032665     0.20200
H2024       H  0.94512291  0.59958168  0.48623717     0.13500
C2025       C  0.59205990  0.44763634  0.67203932     0.17400
C2026       C  0.55612104  0.42539045  0.65375952    -0.31700
C2027       C  0.56783540  0.42587724  0.63099053     0.21800
C2028       C  0.61279115  0.44473391  0.62672703     0.04000
C2029       C  0.64825547  0.96464549  0.64521737    -0.21400
C2030       C  0.63706738  0.46717782  0.66758058     0.13100
S2031       S  0.58686541  0.46063820  0.70010500    -0.05000
C2032       C  0.64706482  0.99541066  0.70558911    -0.08500
C2033       C  0.66860385  0.99430077  0.68672074    -0.25100
S2034       S  0.62211845  0.45312246  0.59828818    -0.02300
C2035       C  0.56612166  0.43552624  0.59225938    -0.15800
C2036       C  0.54054949  0.41847263  0.61107514    -0.13800
H2037       H  0.52140985  0.41299692  0.65688944     0.21600
H2038       H  0.68373499  0.98191421  0.64173484     0.17700
H2039       H  0.70562389  0.01431835  0.68654179     0.20200
H2040       H  0.50651603  0.41092694  0.61131254     0.13500
C2041       C  0.69138066  0.71289117  0.65314885     0.17400
C2042       C  0.69613314  0.71605837  0.67750447    -0.31700
C2043       C  0.68769817  0.74603968  0.68948649     0.21800
C2044       C  0.67786742  0.77388100  0.67775717     0.04000
C2045       C  0.67508332  0.77222629  0.65344917    -0.21400
C2046       C  0.68072461  0.74010043  0.64138706     0.13100
S2047       S  0.68718704  0.66920840  0.63584046    -0.05000
C2048       C  0.66817187  0.68576234  0.61267854    -0.08500
C2049       C  0.66860162  0.72548653  0.61800576    -0.25100
S2050       S  0.66119595  0.80175204  0.69479552    -0.02300
C2051       C  0.66661974  0.77505240  0.71791239    -0.15800
C2052       C  0.68129441  0.74659943  0.71258704    -0.13800
H2053       H  0.70144982  0.69257275  0.68658266     0.21600
H2054       H  0.66437163  0.79158251  0.64426926     0.17700
H2055       H  0.65383338  0.73817126  0.60627945     0.20200
H2056       H  0.68273210  0.72396538  0.72438986     0.13500
C2057       C  0.67528175  0.59177066  0.95207597     0.17400
C2058       C  0.67631521  0.59292452  0.92792465    -0.31700
C2059       C  0.71150013  0.63511539  0.91977440     0.21800
C2060       C  0.74553010  0.67339086  0.93507879     0.04000
C2061       C  0.74519580  0.67177812  0.95917066    -0.21400
C2062       C  0.70853505  0.63073874  0.96727225     0.13100
S2063       S  0.63064365  0.54772931  0.96514131    -0.05000
C2064       C  0.65558117  0.58328872  0.99110813    -0.08500
C2065       C  0.69745048  0.62607631  0.98968946    -0.25100
S2066       S  0.78047428  0.72374962  0.92231811    -0.02300
C2067       C  0.74814375  0.69382553  0.89609010    -0.15800
C2068       C  0.71314503  0.64655574  0.89725681    -0.13800
H2069       H  0.64870312  0.56373053  0.91603171     0.21600
H2070       H  0.77008520  0.70277632  0.97102904     0.17700
H2071       H  0.71665392  0.65398151  0.00386393     0.20200
H2072       H  0.68689788  0.62364010  0.88302589     0.13500
C2073       C  0.92273484  0.50253718  0.65650215     0.17400
C2074       C  0.92294273  0.49939059  0.68048629    -0.31700
C2075       C  0.89188755  0.50372699  0.69179680     0.21800
C2076       C  0.86067239  0.50919091  0.67950156     0.04000
C2077       C  0.85969549  0.51123076  0.65521367    -0.21400
C2078       C  0.89229168  0.50879131  0.64396886     0.13100
S2079       S  0.96215424  0.50431777  0.64098079    -0.05000
C2080       C  0.93915409  0.51518664  0.61705491    -0.08500
C2081       C  0.90126265  0.51576799  0.62100149    -0.25100
S2082       S  0.83089547  0.52102078  0.69690524    -0.02300
C2083       C  0.86236805  0.02009922  0.72115553    -0.15800
C2084       C  0.89235339  0.50931731  0.71549771    -0.13800
H2085       H  0.94837087  0.49672789  0.69015852     0.21600
H2086       H  0.83667909  0.51759120  0.64581986     0.17700
H2087       H  0.88308828  0.52330856  0.60833601     0.20200
H2088       H  0.91747426  0.51129424  0.72807039     0.13500
C2089       C  0.90889216  0.94353126  0.94439437     0.17400
C2090       C  0.90841593  0.95932620  0.92255197    -0.31700
C2091       C  0.92371121  0.94499944  0.90452767     0.21800
C2092       C  0.93570191  0.91365770  0.90779367     0.04000
C2093       C  0.93403329  0.89616349  0.92923180    -0.21400
C2094       C  0.92206866  0.91317811  0.94761762     0.13100
S2095       S  0.40622794  0.47098088  0.97001683    -0.05000
C2096       C  0.42486664  0.44155419  0.98474342    -0.08500
C2097       C  0.93021464  0.90997009  0.97061705    -0.25100
S2098       S  0.96064894  0.90645685  0.88562817    -0.02300
C2099       C  0.95606804  0.94690708  0.87189058    -0.15800
C2100       C  0.93505999  0.96406572  0.88366897    -0.13800
H2101       H  0.40534299  0.99388485  0.92079914     0.21600
H2102       H  0.94647725  0.87436994  0.93208743     0.17700
H2103       H  0.94359373  0.89560259  0.47618021     0.20200
H2104       H  0.93211350  0.99189295  0.87827943     0.13500
loop_ 
_geom_bond_atom_site_label_1 
_geom_bond_atom_site_label_2 
_geom_bond_distance 
_geom_bond_site_symmetry_2 
_ccdc_geom_bond_type 
N1            C5   1.355       .  A
N1            C2   1.354       .  A
N1           C43   1.447       .  S
C2            C3   1.383       .  A
C2          C258   1.468       .  S
C3            C4   1.372       .  A
C3            H6   1.083       .  S
C4            C5   1.382       .  A
C4            H7   1.083       .  S
C5         C1150   1.482       .  S
N8           C12   1.372       .  A
N8            C9   1.368       .  A
N8           C44   1.457       .  S
C9          C536   1.378       .  A
C9          C242   1.478       .  S
C10          C11   1.364       .  A
C10         C535   1.378       .  A
C10          H13   1.082       .  S
C11         C538   1.384       .  A
C11          H14   1.083       .  S
C12         C537   1.384       .  A
C12         C657   1.496       .  S
N15          C19   1.379       .  A
N15          C16   1.364       .  A
N15         C133   1.458       .  S
C16          C17   1.376       .  A
C16         C226   1.474       .  S
C17          C18   1.364       .  A
C17          H20   1.083       .  S
C18          C19   1.384       .  A
C18          H21   1.083       .  S
C19          C42   1.506       .  S
N22          C27   1.353       .  A
N22          C26   1.355       .  A
N22          H54   1.034       .  S
N23          C30   1.359       .  A
N23          C31   1.355       .  A
N24          C29   1.360       .  A
N24          C28   1.358       .  A
N24          H55   1.037       .  S
N25          C32   1.356       .  A
N25          C33   1.356       .  A
C26          C34   1.374       .  A
C26          C42   1.412       .  A
C27          C43   1.408       .  A
C27          C35   1.375       .  A
C28          C36   1.381       .  A
C28          C45   1.424       .  A
C29          C44   1.424       .  A
C29          C37   1.382       .  A
C30          C42   1.425       .  A
C30          C38   1.385       .  A
C31          C45   1.424       .  A
C31          C39   1.387       .  A
C32          C40   1.384       .  A
C32          C43   1.421       .  A
C33          C41   1.385       .  A
C33          C44   1.422       .  A
C34          C35   1.361       .  A
C34          H46   1.055       .  S
C35          H47   1.073       .  S
C36          C37   1.373       .  A
C36          H48   1.072       .  S
C37          H49   1.076       .  S
C38          C39   1.369       .  A
C38          H50   1.082       .  S
C39          H51   1.078       .  S
C40          C41   1.377       .  A
C40          H52   1.082       .  S
C41          H53   1.080       .  S
C45          N56   1.454       .  S
N56          C60   1.368       .  A
N56          C57   1.358       .  A
C57          C58   1.379       .  A
C57         C210   1.470       .  S
C58          C59   1.369       .  A
C58          H61   1.082       .  S
C59          C60   1.383       .  A
C59          H62   1.083       .  S
C60         C100   1.491       .  S
N63          C67   1.369       .  A
N63          C64   1.363       .  A
N63          C99   1.448       .  S
C64         C591   1.381       .  A
C64         C191   1.480       .  S
C65          C66   1.369       .  A
C65         C590   1.381       .  A
C65          H68   1.082       .  S
C66         C593   1.382       .  A
C66          H69   1.083       .  S
C67         C592   1.382       .  A
C67         C658   1.495       .  S
N70          C74   1.374       .  A
N70          C71   1.369       .  A
N70         C134   1.456       .  S
C71          C72   1.387       .  A
C71         C175   1.498       .  S
C72          C73   1.363       .  A
C72          H75   1.081       .  S
C73          C74   1.378       .  A
C73          H76   1.082       .  S
C74        C1149   1.491       .  S
N77          C82   1.355       .  A
N77          C81   1.354       .  A
N77         H109   1.045   1_655  S
N78          C85   1.355       .  A
N78          C86   1.349       .  A
N79          C84   1.358       .  A
N79          C83   1.356       .  A
N79         H110   1.044       .  S
N80          C87   1.352       .  A
N80          C88   1.349       .  A
C81          C97   1.411       .  A
C81        C1141   1.389       .  A
C82          C98   1.411   1_655  A
C82        C1142   1.384       .  A
C83          C91   1.379       .  A
C83         C100   1.416       .  A
C84          C99   1.415       .  A
C84          C92   1.383       .  A
C85          C97   1.420   1_455  A
C85          C93   1.388       .  A
C86         C100   1.404       .  A
C86          C94   1.381       .  A
C87          C95   1.384       .  A
C87          C98   1.407       .  A
C88          C96   1.383       .  A
C88          C99   1.410       .  A
C89          C90   1.378       .  A
C89        C1133   1.389       .  A
C89         H101   1.083       .  S
C90        C1134   1.383       .  A
C90         H102   1.082       .  S
C91          C92   1.371       .  A
C91         H103   1.077       .  S
C92         H104   1.074       .  S
C93          C94   1.377       .  A
C93         H105   1.080       .  S
C94         H106   1.080       .  S
C95          C96   1.377       .  A
C95         H107   1.083       .  S
C96         H108   1.078       .  S
C97        C1126   1.491       .  S
C98        C1057   1.482       .  S
N111        C116   1.350       .  A
N111        C115   1.349       .  A
N111        H143   1.044       .  S
N112        C119   1.356       .  A
N112        C120   1.355       .  A
N113        C118   1.360       .  A
N113        C117   1.360       .  A
N113        H144   1.037       .  S
N114        C121   1.357       .  A
N114        C122   1.354       .  A
C115        C123   1.381       .  A
C115        C131   1.402       .  A
C116        C132   1.403       .  A
C116        C124   1.381       .  A
C117        C125   1.383       .  A
C117        C134   1.424       .  A
C118        C133   1.433       .  A
C118        C126   1.390       .  A
C119        C131   1.418       .  A
C119        C127   1.383       .  A
C120        C134   1.419       .  A
C120        C128   1.381       .  A
C121        C129   1.382       .  A
C121        C132   1.419       .  A
C122        C130   1.383       .  A
C122        C133   1.420       .  A
C123        C124   1.378       .  A
C123        H661   1.076   1_545  S
C124        H662   1.075   1_545  S
C125        C126   1.375       .  A
C125        H137   1.081       .  S
C126        H138   1.080       .  S
C127        C128   1.376       .  A
C127        H139   1.080       .  S
C128        H140   1.073       .  S
C129        C130   1.375       .  A
C129        H141   1.078       .  S
C130        H142   1.073       .  S
C131        C538   1.493       .  S
C132        C593   1.496       .  S
H135        C649   1.076       .  S
H136        C650   1.075       .  S
Zn145       O149   1.889       .  S
Zn145       O150   1.935   1_545  S
Zn145       O154   1.933       .  S
Zn145       O161   1.964       .  S
Zn146       O149   1.975       .  S
Zn146       O151   2.006   1_445  S
Zn146       O153   2.081   1_545  S
Zn146       O157   2.027       .  S
Zn147       O149   1.998   1_655  S
Zn147       O155   2.014   1_545  S
Zn147       O158   2.046       .  S
Zn147      O1204   2.111       .  S
Zn148       O149   1.967       .  S
Zn148       O156   2.033       .  S
Zn148       O159   2.031       .  S
Zn148       O160   2.067       .  S
O150        C162   1.262       .  A
O151        C163   1.275       .  A
O152      Zn1199   2.113       .  S
O152        C164   1.281       .  A
O153        C162   1.276       .  A
O154       C1216   1.263   1_455  A
O155        C163   1.274       .  A
O156        C165   1.277       .  A
O157        C166   1.275       .  A
O158        C165   1.277   1_655  A
O159        C166   1.277       .  A
O160        C167   1.277       .  A
O161        C167   1.266       .  A
C162        C194   1.468       .  S
C163        C518   1.469   1_554  S
C164        C239   1.483       .  S
C164       O1206   1.264       .  A
C165        C441   1.482       .  S
C166        C486   1.473   1_554  S
C167        C207   1.470       .  S
C168        C173   1.383       .  A
C168        C169   1.416       .  A
C168        S174   1.731       .  A
C169        C170   1.418       .  A
C169        H180   1.082       .  S
C170        C179   1.384       .  A
C170       C1223   1.386       .  A
C171        C172   1.395       .  A
C171       C1222   1.386   1_455  A
C171        S177   1.701       .  A
C172       C1225   1.398       .  A
C172        H181   1.083       .  S
C173        C176   1.362       .  A
C173       C1224   1.399       .  A
S174        C175   1.733       .  A
C175        C176   1.390       .  A
C176        H182   1.082       .  S
S177        C178   1.721       .  A
C178       C1231   1.398   1_455  A
C178        C428   1.484       .  S
C179       C1230   1.398       .  A
C179        H446   1.083       .  S
H183        C442   1.083       .  S
C184        C189   1.386       .  A
C184        C185   1.404       .  A
C184        S190   1.718       .  A
C185        C186   1.408       .  A
C185        H196   1.083       .  S
C186        C195   1.372       .  A
C186        C187   1.385       .  A
C187        C714   1.400       .  A
C187        S193   1.708       .  A
C188        C713   1.400       .  A
C188        C715   1.403       .  A
C188        H197   1.083       .  S
C189        C714   1.403       .  A
C189        C718   1.367       .  A
S190        C717   1.722       .  A
C191        C192   1.387       .  A
C191        S716   1.722       .  A
C192        C715   1.366       .  A
C192        H198   1.083       .  S
S193        C194   1.721       .  A
C194        C195   1.394       .  A
C195        H199   1.084       .  S
C200        C205   1.387       .  A
C200        C201   1.403       .  A
C200        S206   1.702       .  A
C201        C202   1.402       .  A
C201        H212   1.083       .  S
C202        C211   1.375       .  A
C202        C203   1.387       .  A
C203        C204   1.403       .  A
C203        S209   1.704       .  A
C204        C205   1.402       .  A
C204        H213   1.083       .  S
C205        C208   1.375       .  A
S206        C207   1.727       .  A
C207        C208   1.385       .  A
C208        H214   1.083       .  S
S209        C210   1.723       .  A
C210        C211   1.385       .  A
C211        H215   1.083       .  S
C216        C221   1.387       .  A
C216        C217   1.405       .  A
C216        S222   1.708       .  A
C217        C218   1.405       .  A
C217        H228   1.083       .  S
C218        C227   1.377       .  A
C218        C219   1.387       .  A
C219        C220   1.401       .  A
C219        S225   1.700       .  A
C220        C221   1.401       .  A
C220        H229   1.083       .  S
C221        C224   1.373       .  A
S222        C223   1.725       .  A
C223        C224   1.387       .  A
C223        C429   1.474       .  S
C224        H230   1.083       .  S
S225        C226   1.724       .  A
C226        C227   1.387       .  A
C227        H231   1.083       .  S
C232        C237   1.387       .  A
C232        C233   1.399       .  A
C232        S238   1.688       .  A
C233        C234   1.395       .  A
C233        H244   1.083       .  S
C234        C243   1.375       .  A
C234        C235   1.387       .  A
C235        C236   1.412       .  A
C235        S241   1.705       .  A
C236        C237   1.408       .  A
C236        H245   1.083       .  S
C237        C240   1.389       .  A
S238        C239   1.727       .  A
C239        C240   1.393       .  A
C240        H246   1.083       .  S
S241        C768   1.732       .  A
C242        C769   1.382       .  A
C242        S767   1.732       .  A
C243        C768   1.381       .  A
C243        H247   1.083       .  S
C248        C253   1.387       .  A
C248        C249   1.405       .  A
C248       S1832   1.705       .  A
C249        C250   1.403       .  A
C249       H1312   1.083       .  S
C250        C259   1.376       .  A
C250        C251   1.388       .  A
C251        C252   1.397       .  A
C251        S257   1.696       .  A
C252        C253   1.398       .  A
C252        H261   1.083       .  S
C253        C256   1.369       .  A
S254        C255   1.726       .  A
S254       C1826   1.705       .  A
C255       C1834   1.385       .  A
C255        C426   1.469       .  S
C256       C1833   1.385       .  A
C256        H525   1.084       .  S
S257        C258   1.721       .  A
C258        C259   1.383       .  A
C259        H263   1.083       .  S
H260       C1301   1.083       .  S
H262        C519   1.083       .  S
N264        C268   1.356       .  A
N264        C265   1.353       .  A
N264        C306   1.447       .  S
C265        C266   1.383       .  A
C265        C521   1.467       .  S
C266        C267   1.373       .  A
C266        H269   1.083       .  S
C267        C268   1.382       .  A
C267        H270   1.083       .  S
C268       C1413   1.482       .  S
N271        C275   1.370       .  A
N271        C272   1.367       .  A
N271        C307   1.456       .  S
C272        C799   1.378       .  A
C272        C505   1.477       .  S
C273        C798   1.378       .  A
C273        C274   1.364       .  A
C273        H276   1.082       .  S
C274        C801   1.383       .  A
C274        H277   1.083       .  S
C275        C800   1.384       .  A
C275        C920   1.494       .  S
N278        C282   1.378       .  A
N278        C279   1.363       .  A
N278        C396   1.458       .  S
C279        C280   1.376       .  A
C279        C489   1.473       .  S
C280        C281   1.363       .  A
C280        H283   1.083       .  S
C281        C282   1.384       .  A
C281        H284   1.083       .  S
C282        C305   1.505       .  S
N285        C290   1.353       .  A
N285        C289   1.355       .  A
N285        H317   1.036       .  S
N286        C293   1.358       .  A
N286        C294   1.355       .  A
N287        C292   1.359       .  A
N287        C291   1.357       .  A
N287        H318   1.038       .  S
N288        C295   1.356       .  A
N288        C296   1.356       .  A
C289        C297   1.374       .  A
C289        C305   1.412       .  A
C290        C306   1.408       .  A
C290        C298   1.375       .  A
C291        C299   1.381       .  A
C291        C308   1.422       .  A
C292        C307   1.422       .  A
C292        C300   1.382       .  A
C293        C305   1.425       .  A
C293        C301   1.385       .  A
C294        C308   1.423       .  A
C294        C302   1.386       .  A
C295        C303   1.384       .  A
C295        C306   1.421       .  A
C296        C304   1.385       .  A
C296        C307   1.422       .  A
C297        C298   1.361       .  A
C297        H309   1.056       .  S
C298        H310   1.072       .  S
C299        C300   1.373       .  A
C299        H311   1.071       .  S
C300        H312   1.076       .  S
C301        C302   1.369       .  A
C301        H313   1.082       .  S
C302        H314   1.079       .  S
C303        C304   1.377       .  A
C303        H315   1.082       .  S
C304        H316   1.080       .  S
C308        N319   1.453       .  S
N319        C323   1.367       .  A
N319        C320   1.356       .  A
C320        C321   1.379       .  A
C320        C473   1.468       .  S
C321        C322   1.369       .  A
C321        H324   1.082       .  S
C322        C323   1.383       .  A
C322        H325   1.083       .  S
C323        C363   1.489       .  S
N326        C330   1.369       .  A
N326        C327   1.363       .  A
N326        C362   1.449       .  S
C327        C854   1.381       .  A
C327        C454   1.480       .  S
C328        C853   1.381       .  A
C328        C329   1.369       .  A
C328        H331   1.082       .  S
C329        C856   1.382       .  A
C329        H332   1.083       .  S
C330        C855   1.382       .  A
C330        C921   1.495       .  S
N333        C337   1.372       .  A
N333        C334   1.366       .  A
N333        C397   1.455       .  S
C334        C335   1.385       .  A
C334        C438   1.492       .  S
C335        C336   1.365       .  A
C335        H338   1.082       .  S
C336        C337   1.379       .  A
C336        H339   1.082       .  S
C337       C1412   1.490       .  S
N340        C345   1.356       .  A
N340        C344   1.355       .  A
N340        H372   1.044   1_655  S
N341        C348   1.355       .  A
N341        C349   1.349       .  A
N342        C347   1.358       .  A
N342        C346   1.355       .  A
N342        H373   1.044       .  S
N343        C350   1.352       .  A
N343        C351   1.350       .  A
C344       C1404   1.389       .  A
C344        C360   1.414       .  A
C345        C361   1.412   1_655  A
C345       C1405   1.383       .  A
C346        C354   1.379       .  A
C346        C363   1.415       .  A
C347        C362   1.415       .  A
C347        C355   1.383       .  A
C348        C360   1.420   1_455  A
C348        C356   1.388       .  A
C349        C363   1.403       .  A
C349        C357   1.380       .  A
C350        C358   1.385       .  A
C350        C361   1.408       .  A
C351        C359   1.383       .  A
C351        C362   1.409       .  A
C352       C1396   1.389       .  A
C352        C353   1.378       .  A
C352        H364   1.083       .  S
C353       C1397   1.384       .  A
C353        H365   1.082       .  S
C354        C355   1.371       .  A
C354        H366   1.077       .  S
C355        H367   1.074       .  S
C356        C357   1.375       .  A
C356        H368   1.080       .  S
C357        H369   1.080       .  S
C358        C359   1.376       .  A
C358        H370   1.083       .  S
C359        H371   1.078       .  S
C360       C1389   1.491       .  S
C361       C1320   1.482       .  S
N374        C379   1.350       .  A
N374        C378   1.349       .  A
N374        H406   1.044       .  S
N375        C382   1.356       .  A
N375        C383   1.355       .  A
N376        C381   1.360       .  A
N376        C380   1.359       .  A
N376        H407   1.036       .  S
N377        C384   1.357       .  A
N377        C385   1.354       .  A
C378        C386   1.381       .  A
C378        C394   1.402       .  A
C379        C395   1.403       .  A
C379        C387   1.381       .  A
C380        C388   1.384       .  A
C380        C397   1.424       .  A
C381        C396   1.432       .  A
C381        C389   1.390       .  A
C382        C394   1.418       .  A
C382        C390   1.383       .  A
C383        C397   1.418       .  A
C383        C391   1.381       .  A
C384        C392   1.382       .  A
C384        C395   1.419       .  A
C385        C393   1.383       .  A
C385        C396   1.421       .  A
C386        C387   1.379       .  A
C386        H924   1.077   1_545  S
C387        H925   1.075   1_545  S
C388        C389   1.374       .  A
C388        H400   1.081       .  S
C389        H401   1.080       .  S
C390        C391   1.375       .  A
C390        H402   1.080       .  S
C391        H403   1.073       .  S
C392        C393   1.375       .  A
C392        H404   1.078       .  S
C393        H405   1.072       .  S
C394        C801   1.493       .  S
C395        C856   1.495       .  S
H398        C912   1.077       .  S
H399        C913   1.075       .  S
Zn408       O412   1.890       .  S
Zn408       O413   1.935   1_545  S
Zn408       O417   1.942       .  S
Zn408       O424   1.967       .  S
Zn409       O412   1.975       .  S
Zn409       O414   2.004   1_445  S
Zn409       O416   2.076   1_545  S
Zn409       O420   2.030       .  S
Zn410       O412   2.002   1_655  S
Zn410      O1467   2.118       .  S
Zn410       O418   2.017   1_545  S
Zn410       O421   2.058       .  S
Zn411       O412   1.959       .  S
Zn411       O419   2.012       .  S
Zn411       O422   2.029       .  S
Zn411       O423   2.060       .  S
O413        C425   1.263       .  A
O414        C426   1.275       .  A
O415      Zn1462   2.116       .  S
O415        C427   1.282       .  A
O416        C425   1.276       .  A
O417       C1479   1.264   1_455  A
O418        C426   1.275       .  A
O419        C428   1.275       .  A
O420        C429   1.275       .  A
O421        C428   1.279   1_655  A
O422        C429   1.276       .  A
O423        C430   1.276       .  A
O424        C430   1.266       .  A
C425        C457   1.465       .  S
C427        C502   1.484       .  S
C427       O1469   1.264       .  A
C430        C470   1.469       .  S
C431        C436   1.384       .  A
C431        C432   1.415       .  A
C431        S437   1.730       .  A
C432        C433   1.417       .  A
C432        H443   1.082       .  S
C433        C442   1.384       .  A
C433       C1486   1.386       .  A
C434       C1485   1.386   1_455  A
C434        C435   1.395       .  A
C434        S440   1.706   1_556  A
C435       C1488   1.400       .  A
C435        H444   1.083       .  S
C436       C1487   1.397       .  A
C436        C439   1.362       .  A
S437        C438   1.732       .  A
C438        C439   1.388       .  A
C439        H445   1.083       .  S
S440        C441   1.719       .  A
C441       C1494   1.397   1_454  A
C442       C1493   1.398   1_556  A
C447        C452   1.386       .  A
C447        C448   1.404       .  A
C447        S453   1.718       .  A
C448        C449   1.408       .  A
C448        H459   1.083       .  S
C449        C458   1.371       .  A
C449        C450   1.385       .  A
C450        C977   1.400       .  A
C450        S456   1.707       .  A
C451        C976   1.400       .  A
C451        C978   1.403       .  A
C451        H460   1.083       .  S
C452        C977   1.402       .  A
C452        C981   1.366       .  A
S453        C980   1.722       .  A
C454        C455   1.388       .  A
C454        S979   1.722       .  A
C455        C978   1.366       .  A
C455        H461   1.083       .  S
S456        C457   1.721       .  A
C457        C458   1.393       .  A
C458        H462   1.084       .  S
C463        C468   1.388       .  A
C463        C464   1.402       .  A
C463        S469   1.701       .  A
C464        C465   1.401       .  A
C464        H475   1.083       .  S
C465        C474   1.374       .  A
C465        C466   1.387       .  A
C466        C467   1.402       .  A
C466        S472   1.703       .  A
C467        C468   1.402       .  A
C467        H476   1.083       .  S
C468        C471   1.374       .  A
S469        C470   1.725       .  A
C470        C471   1.385       .  A
C471        H477   1.083       .  S
S472        C473   1.722       .  A
C473        C474   1.383       .  A
C474        H478   1.083       .  S
C479        C484   1.387       .  A
C479        C480   1.405       .  A
C479        S485   1.707       .  A
C480        C481   1.404       .  A
C480        H491   1.083       .  S
C481        C490   1.376       .  A
C481        C482   1.387       .  A
C482        C483   1.401       .  A
C482        S488   1.700       .  A
C483        C484   1.401       .  A
C483        H492   1.083       .  S
C484        C487   1.373       .  A
S485        C486   1.724       .  A
C486        C487   1.387       .  A
C487        H493   1.083   1_556  S
S488        C489   1.724       .  A
C489        C490   1.386       .  A
C490        H494   1.083       .  S
C495        C500   1.387       .  A
C495        C496   1.399   1_545  A
C495        S501   1.689       .  A
C496        C497   1.396   1_565  A
C496        H507   1.083       .  S
C497        C506   1.376       .  A
C497        C498   1.387       .  A
C498        C499   1.412       .  A
C498        S504   1.704       .  A
C499        C500   1.408       .  A
C499        H508   1.083       .  S
C500        C503   1.389       .  A
S501        C502   1.727       .  A
C502        C503   1.393       .  A
C503        H509   1.083       .  S
S504       C1031   1.732       .  A
C505       C1032   1.382       .  A
C505       S1030   1.732       .  A
C506       C1031   1.382       .  A
C506        H510   1.083       .  S
C511        C516   1.387       .  A
C511        C512   1.404       .  A
C511       S2095   1.704       .  A
C512        C513   1.403       .  A
C512       H1575   1.083       .  S
C513        C522   1.376       .  A
C513        C514   1.388       .  A
C514        C515   1.397       .  A
C514        S520   1.696       .  A
C515        C516   1.398       .  A
C515        H524   1.083       .  S
C516        C519   1.369       .  A
S517       C2089   1.705       .  A
S517        C518   1.726       .  A
C518       C2097   1.385       .  A
C519       C2096   1.385       .  A
S520        C521   1.721       .  A
C521        C522   1.384       .  A
C522        H526   1.083       .  S
H523       C1564   1.083       .  S
N527        C531   1.355       .  A
N527        C528   1.354       .  A
N527        C569   1.447       .  S
C528        C529   1.384       .  A
C528        C784   1.468       .  S
C529        C530   1.372       .  A
C529        H532   1.083   1_565  S
C530        C531   1.382       .  A
C530        H533   1.083       .  S
C531       C1676   1.481       .  S
N534        C538   1.369       .  A
N534        C535   1.367       .  A
N534        C570   1.455   1_545  S
C535        C768   1.476       .  S
C536        C537   1.364       .  A
C536        H539   1.083       .  S
C537        H540   1.083       .  S
N541        C545   1.378       .  A
N541        C542   1.363       .  A
N541        C659   1.459       .  S
C542        C543   1.376       .  A
C542        C752   1.472       .  S
C543        C544   1.363       .  A
C543        H546   1.083       .  S
C544        C545   1.385       .  A
C544        H547   1.083       .  S
C545        C568   1.505       .  S
N548        C553   1.354       .  A
N548        C552   1.355       .  A
N548        H580   1.033       .  S
N549        C556   1.358       .  A
N549        C557   1.356       .  A
N550        C555   1.359       .  A
N550        C554   1.358       .  A
N550        H581   1.035       .  S
N551        C558   1.356       .  A
N551        C559   1.355       .  A
C552        C560   1.374       .  A
C552        C568   1.412       .  A
C553        C569   1.408       .  A
C553        C561   1.375       .  A
C554        C562   1.381       .  A
C554        C571   1.422       .  A
C555        C570   1.422       .  A
C555        C563   1.382       .  A
C556        C568   1.426       .  A
C556        C564   1.385       .  A
C557        C571   1.424       .  A
C557        C565   1.386       .  A
C558        C566   1.384   1_565  A
C558        C569   1.421       .  A
C559        C567   1.385   1_565  A
C559        C570   1.421       .  A
C560        C561   1.361       .  A
C560        H572   1.054       .  S
C561        H573   1.073       .  S
C562        C563   1.372       .  A
C562        H574   1.071       .  S
C563        H575   1.077       .  S
C564        C565   1.370       .  A
C564        H576   1.082       .  S
C565        H577   1.078       .  S
C566        C567   1.377       .  A
C566        H578   1.082       .  S
C567        H579   1.081       .  S
C571        N582   1.454       .  S
N582        C586   1.367       .  A
N582        C583   1.357       .  A
C583        C584   1.379       .  A
C583        C736   1.469       .  S
C584        C585   1.369       .  A
C584        H587   1.082       .  S
C585        C586   1.383       .  A
C585        H588   1.083       .  S
C586        C626   1.490       .  S
N589        C593   1.370       .  A
N589        C590   1.363       .  A
N589        C625   1.449   1_545  S
C590        C717   1.481   1_545  S
C591        C592   1.369       .  A
C591        H594   1.082       .  S
C592        H595   1.083       .  S
N596        C600   1.373       .  A
N596        C597   1.372       .  A
N596        C660   1.456       .  S
C597        C598   1.390       .  A
C597        C701   1.504       .  S
C598        C599   1.362       .  A
C598        H601   1.079       .  S
C599        C600   1.375       .  A
C599        H602   1.082       .  S
C600       C1675   1.490       .  S
N603        C608   1.355       .  A
N603        C607   1.354       .  A
N603        H635   1.044   1_655  S
N604        C611   1.354       .  A
N604        C612   1.349       .  A
N605        C610   1.358       .  A
N605        C609   1.355       .  A
N605        H636   1.044       .  S
N606        C613   1.352       .  A
N606        C614   1.350       .  A
C607       C1667   1.389       .  A
C607        C623   1.413       .  A
C608        C624   1.412   1_655  A
C608       C1668   1.384       .  A
C609        C617   1.379       .  A
C609        C626   1.416       .  A
C610        C625   1.415       .  A
C610        C618   1.383       .  A
C611        C623   1.420   1_455  A
C611        C619   1.388       .  A
C612        C626   1.403       .  A
C612        C620   1.380       .  A
C613        C621   1.385   1_565  A
C613        C624   1.408       .  A
C614        C622   1.383   1_565  A
C614        C625   1.410       .  A
C615       C1659   1.389       .  A
C615        C616   1.378       .  A
C615        H627   1.083       .  S
C616       C1660   1.384       .  A
C616        H628   1.082       .  S
C617        C618   1.371       .  A
C617        H629   1.077       .  S
C618        H630   1.074       .  S
C619        C620   1.375       .  A
C619        H631   1.080       .  S
C620        H632   1.080       .  S
C621        C622   1.376       .  A
C621        H633   1.083       .  S
C622        H634   1.078       .  S
C623       C1652   1.490       .  S
C624       C1583   1.482       .  S
N637        C642   1.350       .  A
N637        C641   1.350       .  A
N637        H669   1.044       .  S
N638        C645   1.357       .  A
N638        C646   1.356       .  A
N639        C644   1.360       .  A
N639        C643   1.359       .  A
N639        H670   1.036       .  S
N640        C647   1.357       .  A
N640        C648   1.354       .  A
C641        C649   1.381       .  A
C641        C657   1.402       .  A
C642        C658   1.403       .  A
C642        C650   1.381       .  A
C643        C651   1.384       .  A
C643        C660   1.424       .  A
C644        C659   1.433       .  A
C644        C652   1.390       .  A
C645        C657   1.420       .  A
C645        C653   1.383       .  A
C646        C660   1.421       .  A
C646        C654   1.382       .  A
C647        C655   1.382       .  A
C647        C658   1.418       .  A
C648        C656   1.382       .  A
C648        C659   1.420       .  A
C649        C650   1.378       .  A
C651        C652   1.375       .  A
C651        H663   1.081       .  S
C652        H664   1.080       .  S
C653        C654   1.376       .  A
C653        H665   1.081       .  S
C654        H666   1.073       .  S
C655        C656   1.374       .  A
C655        H667   1.078       .  S
C656        H668   1.073       .  S
Zn671       O675   1.891       .  S
Zn671       O676   1.934       .  S
Zn671       O680   1.940       .  S
Zn671       O687   1.963       .  S
Zn672       O675   1.976       .  S
Zn672       O677   2.005   1_455  S
Zn672       O679   2.079       .  S
Zn672       O683   2.029       .  S
Zn673       O675   2.000   1_655  S
Zn673      O1730   2.116       .  S
Zn673       O681   2.015       .  S
Zn673       O684   2.051       .  S
Zn674       O675   1.965       .  S
Zn674       O682   2.024       .  S
Zn674       O685   2.031       .  S
Zn674       O686   2.064       .  S
O676        C688   1.262       .  A
O677        C689   1.275       .  A
O678      Zn1725   2.118       .  S
O678        C690   1.282       .  A
O679        C688   1.276       .  A
O680       C1742   1.264   1_455  A
O681        C689   1.274       .  A
O682        C691   1.277       .  A
O683        C692   1.275       .  A
O684        C691   1.278   1_655  A
O685        C692   1.276       .  A
O686        C693   1.276       .  A
O687        C693   1.266       .  A
C688        C720   1.467       .  S
C689       C1044   1.470   1_554  S
C690        C765   1.485       .  S
C690       O1732   1.264       .  A
C691        C967   1.483       .  S
C692       C1012   1.474   1_554  S
C693        C733   1.469       .  S
C694        C699   1.381       .  A
C694        C695   1.415       .  A
C694        S700   1.731       .  A
C695        C696   1.418       .  A
C695        H706   1.082       .  S
C696        C705   1.383       .  A
C696       C1749   1.386       .  A
C697       C1748   1.386   1_455  A
C697        C698   1.395       .  A
C697        S703   1.705       .  A
C698       C1751   1.399       .  A
C698        H707   1.083       .  S
C699       C1750   1.400       .  A
C699        C702   1.362       .  A
S700        C701   1.735       .  A
C701        C702   1.393       .  A
C702        H708   1.080       .  S
S703        C704   1.720       .  A
C704       C1757   1.398   1_455  A
C704        C954   1.483       .  S
C705       C1756   1.397       .  A
C705        H972   1.083       .  S
H709        C968   1.083       .  S
C710        C715   1.386       .  A
C710        C711   1.404       .  A
C710        S716   1.718       .  A
C711        C712   1.408       .  A
C711        H722   1.083       .  S
C712        C721   1.371       .  A
C712        C713   1.385       .  A
C713        S719   1.708       .  A
C714        H723   1.083       .  S
C717        C718   1.388       .  A
C718        H724   1.083   1_565  S
S719        C720   1.721       .  A
C720        C721   1.394       .  A
C721        H725   1.084       .  S
C726        C731   1.388       .  A
C726        C727   1.402       .  A
C726        S732   1.701       .  A
C727        C728   1.401       .  A
C727        H738   1.083       .  S
C728        C737   1.374       .  A
C728        C729   1.387       .  A
C729        C730   1.402       .  A
C729        S735   1.703       .  A
C730        C731   1.402       .  A
C730        H739   1.083       .  S
C731        C734   1.374       .  A
S732        C733   1.726       .  A
C733        C734   1.385       .  A
C734        H740   1.083       .  S
S735        C736   1.722       .  A
C736        C737   1.384       .  A
C737        H741   1.083       .  S
C742        C747   1.387       .  A
C742        C743   1.404       .  A
C742        S748   1.707       .  A
C743        C744   1.404       .  A
C743        H754   1.083       .  S
C744        C753   1.376       .  A
C744        C745   1.387       .  A
C745        C746   1.400       .  A
C745        S751   1.699       .  A
C746        C747   1.400       .  A
C746        H755   1.083       .  S
C747        C750   1.372       .  A
S748        C749   1.724       .  A
C749        C750   1.386       .  A
C749        C955   1.472       .  S
C750        H756   1.083       .  S
S751        C752   1.723       .  A
C752        C753   1.386       .  A
C753        H757   1.083       .  S
C758        C763   1.387       .  A
C758        C759   1.400       .  A
C758        S764   1.690       .  A
C759        C760   1.397       .  A
C759        H770   1.083       .  S
C760        C769   1.377       .  A
C760        C761   1.387       .  A
C761        C762   1.412       .  A
C761        S767   1.705       .  A
C762        C763   1.408       .  A
C762        H771   1.083       .  S
C763        C766   1.390       .  A
S764        C765   1.727       .  A
C765        C766   1.393       .  A
C766        H772   1.083       .  S
C769        H773   1.083       .  S
C774        C779   1.387       .  A
C774        C775   1.405       .  A
C774       S1306   1.705       .  A
C775        C776   1.404       .  A
C775       H1838   1.083       .  S
C776        C785   1.376       .  A
C776        C777   1.388       .  A
C777        C778   1.397       .  A
C777        S783   1.696       .  A
C778        C779   1.397       .  A
C778        H787   1.083       .  S
C779        C782   1.369       .  A
S780       C1300   1.705       .  A
S780        C781   1.725       .  A
C781       C1308   1.385       .  A
C781        C952   1.469       .  S
C782       C1307   1.385       .  A
C782       H1051   1.084       .  S
S783        C784   1.721       .  A
C784        C785   1.384       .  A
C785        H789   1.083       .  S
H786       C1827   1.083       .  S
H788       C1045   1.084       .  S
N790        C794   1.356       .  A
N790        C791   1.354       .  A
N790        C832   1.447       .  S
C791        C792   1.383       .  A
C791       C1047   1.467       .  S
C792        C793   1.373       .  A
C792        H795   1.083   1_565  S
C793        C794   1.382       .  A
C793        H796   1.083       .  S
C794       C1939   1.482       .  S
N797        C801   1.369       .  A
N797        C798   1.367       .  A
N797        C833   1.455   1_545  S
C798       C1031   1.476       .  S
C799        C800   1.364       .  A
C799        H802   1.083       .  S
C800        H803   1.083       .  S
N804        C808   1.379       .  A
N804        C805   1.364       .  A
N804        C922   1.459       .  S
C805        C806   1.376       .  A
C805       C1015   1.474       .  S
C806        C807   1.364       .  A
C806        H809   1.083       .  S
C807        C808   1.384       .  A
C807        H810   1.083       .  S
C808        C831   1.506       .  S
N811        C816   1.354       .  A
N811        C815   1.355       .  A
N811        H843   1.034       .  S
N812        C819   1.358       .  A
N812        C820   1.356       .  A
N813        C818   1.359       .  A
N813        C817   1.357       .  A
N813        H844   1.036       .  S
N814        C821   1.356       .  A
N814        C822   1.355       .  A
C815        C823   1.374       .  A
C815        C831   1.413       .  A
C816        C832   1.409       .  A
C816        C824   1.375       .  A
C817        C825   1.381       .  A
C817        C834   1.423       .  A
C818        C833   1.422       .  A
C818        C826   1.382       .  A
C819        C831   1.426       .  A
C819        C827   1.385       .  A
C820        C834   1.424       .  A
C820        C828   1.386       .  A
C821        C829   1.385   1_565  A
C821        C832   1.421       .  A
C822        C830   1.385   1_565  A
C822        C833   1.422       .  A
C823        C824   1.361       .  A
C823        H835   1.054       .  S
C824        H836   1.073       .  S
C825        C826   1.373       .  A
C825        H837   1.071       .  S
C826        H838   1.077       .  S
C827        C828   1.370       .  A
C827        H839   1.082       .  S
C828        H840   1.078       .  S
C829        C830   1.377       .  A
C829        H841   1.082       .  S
C830        H842   1.081       .  S
C834        N845   1.453       .  S
N845        C849   1.367       .  A
N845        C846   1.357       .  A
C846        C847   1.379       .  A
C846        C999   1.469       .  S
C847        C848   1.369       .  A
C847        H850   1.082       .  S
C848        C849   1.383       .  A
C848        H851   1.083       .  S
C849        C889   1.490       .  S
N852        C856   1.369       .  A
N852        C853   1.363       .  A
N852        C888   1.448   1_545  S
C853        C980   1.480   1_545  S
C854        C855   1.369       .  A
C854        H857   1.082       .  S
C855        H858   1.083       .  S
N859        C863   1.374       .  A
N859        C860   1.370       .  A
N859        C923   1.456       .  S
C860        C861   1.388       .  A
C860        C964   1.499       .  S
C861        C862   1.363       .  A
C861        H864   1.081       .  S
C862        C863   1.377       .  A
C862        H865   1.082       .  S
C863       C1938   1.491       .  S
N866        C871   1.355       .  A
N866        C870   1.354       .  A
N866        H898   1.044   1_655  S
N867        C874   1.355       .  A
N867        C875   1.349       .  A
N868        C873   1.358       .  A
N868        C872   1.356       .  A
N868        H899   1.044       .  S
N869        C876   1.352       .  A
N869        C877   1.349       .  A
C870       C1930   1.389       .  A
C870        C886   1.412       .  A
C871        C887   1.412       .  A
C871       C1931   1.384       .  A
C872        C880   1.379       .  A
C872        C889   1.416       .  A
C873        C888   1.415       .  A
C873        C881   1.383       .  A
C874        C886   1.420   1_455  A
C874        C882   1.388       .  A
C875        C889   1.403       .  A
C875        C883   1.380       .  A
C876        C884   1.384       .  A
C876        C887   1.406   1_455  A
C877        C885   1.383   1_565  A
C877        C888   1.409       .  A
C878       C1922   1.389       .  A
C878        C879   1.378       .  A
C878        H890   1.083       .  S
C879       C1923   1.384       .  A
C879        H891   1.082       .  S
C880        C881   1.371       .  A
C880        H892   1.077       .  S
C881        H893   1.074       .  S
C882        C883   1.376       .  A
C882        H894   1.080       .  S
C883        H895   1.080       .  S
C884        C885   1.376   1_565  A
C884        H896   1.083   1_565  S
C885        H897   1.078       .  S
C886       C1915   1.490       .  S
C887       C1846   1.482   1_655  S
N900        C905   1.350       .  A
N900        C904   1.349       .  A
N900        H932   1.044       .  S
N901        C908   1.356       .  A
N901        C909   1.355       .  A
N902        C907   1.360       .  A
N902        C906   1.360       .  A
N902        H933   1.037       .  S
N903        C910   1.357       .  A
N903        C911   1.354       .  A
C904        C912   1.381       .  A
C904        C920   1.402       .  A
C905        C921   1.403       .  A
C905        C913   1.381       .  A
C906        C914   1.383       .  A
C906        C923   1.423       .  A
C907        C922   1.433       .  A
C907        C915   1.390       .  A
C908        C920   1.419       .  A
C908        C916   1.383       .  A
C909        C923   1.419       .  A
C909        C917   1.381       .  A
C910        C918   1.382       .  A
C910        C921   1.419       .  A
C911        C919   1.383       .  A
C911        C922   1.420       .  A
C912        C913   1.379       .  A
C914        C915   1.375       .  A
C914        H926   1.081       .  S
C915        H927   1.080       .  S
C916        C917   1.376       .  A
C916        H928   1.080       .  S
C917        H929   1.073       .  S
C918        C919   1.375       .  A
C918        H930   1.078       .  S
C919        H931   1.072       .  S
Zn934       O938   1.890       .  S
Zn934       O939   1.935       .  S
Zn934       O943   1.937       .  S
Zn934       O950   1.964       .  S
Zn935       O938   1.977       .  S
Zn935       O940   2.006   1_455  S
Zn935       O942   2.078       .  S
Zn935       O946   2.025       .  S
Zn936       O938   1.998   1_655  S
Zn936      O1993   2.116       .  S
Zn936       O944   2.015       .  S
Zn936       O947   2.051       .  S
Zn937       O938   1.966       .  S
Zn937       O945   2.028       .  S
Zn937       O948   2.030       .  S
Zn937       O949   2.064       .  S
O939        C951   1.262       .  A
O940        C952   1.275       .  A
O941      Zn1988   2.111       .  S
O941        C953   1.281       .  A
O942        C951   1.276       .  A
O943       C2005   1.264   1_455  A
O944        C952   1.274       .  A
O945        C954   1.277       .  A
O946        C955   1.275       .  A
O947        C954   1.277   1_655  A
O948        C955   1.276       .  A
O949        C956   1.276       .  A
O950        C956   1.266       .  A
C951        C983   1.467       .  S
C953       C1028   1.482       .  S
C953       O1995   1.264       .  A
C956        C996   1.469       .  S
C957        C962   1.382       .  A
C957        C958   1.416       .  A
C957        S963   1.731       .  A
C958        C959   1.418       .  A
C958        H969   1.082       .  S
C959        C968   1.384       .  A
C959       C2012   1.386       .  A
C960       C2011   1.386   1_455  A
C960        C961   1.395       .  A
C960        S966   1.704       .  A
C961       C2014   1.399       .  A
C961        H970   1.083       .  S
C962       C2013   1.399       .  A
C962        C965   1.362       .  A
S963        C964   1.733       .  A
C964        C965   1.391       .  A
C965        H971   1.082       .  S
S966        C967   1.720   1_556  A
C967       C2020   1.398   1_454  A
C968       C2019   1.398   1_556  A
C973        C978   1.386       .  A
C973        C974   1.404       .  A
C973        S979   1.718       .  A
C974        C975   1.408       .  A
C974        H985   1.083       .  S
C975        C984   1.371       .  A
C975        C976   1.385       .  A
C976        S982   1.708       .  A
C977        H986   1.083       .  S
C980        C981   1.387       .  A
C981        H987   1.083   1_565  S
S982        C983   1.721       .  A
C983        C984   1.393       .  A
C984        H988   1.084       .  S
C989        C994   1.388       .  A
C989        C990   1.402       .  A
C989        S995   1.701       .  A
C990        C991   1.401       .  A
C990       H1001   1.083       .  S
C991       C1000   1.374       .  A
C991        C992   1.387       .  A
C992        C993   1.402       .  A
C992        S998   1.703       .  A
C993        C994   1.402       .  A
C993       H1002   1.083       .  S
C994        C997   1.375       .  A
S995        C996   1.726       .  A
C996        C997   1.385       .  A
C997       H1003   1.083       .  S
S998        C999   1.723       .  A
C999       C1000   1.384       .  A
C1000      H1004   1.083       .  S
C1005      C1010   1.387       .  A
C1005      C1006   1.405       .  A
C1005      S1011   1.707       .  A
C1006      C1007   1.405       .  A
C1006      H1017   1.083       .  S
C1007      C1016   1.377       .  A
C1007      C1008   1.387       .  A
C1008      C1009   1.401       .  A
C1008      S1014   1.700       .  A
C1009      C1010   1.401       .  A
C1009      H1018   1.083       .  S
C1010      C1013   1.373       .  A
S1011      C1012   1.725       .  A
C1012      C1013   1.387       .  A
C1013      H1019   1.083   1_556  S
S1014      C1015   1.724       .  A
C1015      C1016   1.387       .  A
C1016      H1020   1.083       .  S
C1021      C1026   1.387       .  A
C1021      C1022   1.400       .  A
C1021      S1027   1.689       .  A
C1022      C1023   1.396       .  A
C1022      H1033   1.083       .  S
C1023      C1032   1.376       .  A
C1023      C1024   1.387       .  A
C1024      C1025   1.412       .  A
C1024      S1030   1.704       .  A
C1025      C1026   1.408       .  A
C1025      H1034   1.083       .  S
C1026      C1029   1.389       .  A
S1027      C1028   1.727       .  A
C1028      C1029   1.392       .  A
C1029      H1035   1.083       .  S
C1032      H1036   1.083       .  S
C1037      C1042   1.387       .  A
C1037      C1038   1.405       .  A
C1037      S1569   1.705       .  A
C1038      C1039   1.404       .  A
C1038      H2101   1.083       .  S
C1039      C1048   1.376       .  A
C1039      C1040   1.388       .  A
C1040      C1041   1.397       .  A
C1040      S1046   1.695       .  A
C1041      C1042   1.397       .  A
C1041      H1050   1.083       .  S
C1042      C1045   1.369       .  A
S1043      C1563   1.705       .  A
S1043      C1044   1.726       .  A
C1044      C1571   1.385       .  A
C1045      C1570   1.385       .  A
S1046      C1047   1.721       .  A
C1047      C1048   1.384       .  A
C1048      H1052   1.083       .  S
H1049      C2090   1.083       .  S
N1053      C1057   1.356   1_655  A
N1053      C1054   1.354       .  A
N1053      C1095   1.447       .  S
C1054      C1055   1.383   1_655  A
C1054      C1310   1.467       .  S
C1055      C1056   1.373       .  A
C1055      H1058   1.083       .  S
C1056      C1057   1.382       .  A
C1056      H1059   1.083       .  S
N1060      C1064   1.371       .  A
N1060      C1061   1.368       .  A
N1060      C1096   1.457       .  S
C1061      C1588   1.378       .  A
C1061      C1294   1.477       .  S
C1062      C1587   1.378       .  A
C1062      C1063   1.365       .  A
C1062      H1065   1.082       .  S
C1063      C1590   1.384       .  A
C1063      H1066   1.083       .  S
C1064      C1589   1.384       .  A
C1064      C1709   1.495       .  S
N1067      C1071   1.378       .  A
N1067      C1068   1.364       .  A
N1067      C1185   1.458       .  S
C1068      C1069   1.376       .  A
C1068      C1278   1.474       .  S
C1069      C1070   1.364       .  A
C1069      H1072   1.083       .  S
C1070      C1071   1.384       .  A
C1070      H1073   1.083       .  S
C1071      C1094   1.506       .  S
N1074      C1079   1.353       .  A
N1074      C1078   1.355       .  A
N1074      H1106   1.036       .  S
N1075      C1082   1.359       .  A
N1075      C1083   1.355       .  A
N1076      C1081   1.359       .  A
N1076      C1080   1.357       .  A
N1076      H1107   1.037       .  S
N1077      C1084   1.356       .  A
N1077      C1085   1.356       .  A
C1078      C1086   1.374       .  A
C1078      C1094   1.412       .  A
C1079      C1095   1.408       .  A
C1079      C1087   1.375       .  A
C1080      C1088   1.381       .  A
C1080      C1097   1.423       .  A
C1081      C1096   1.423       .  A
C1081      C1089   1.382       .  A
C1082      C1094   1.425       .  A
C1082      C1090   1.384       .  A
C1083      C1097   1.424       .  A
C1083      C1091   1.386       .  A
C1084      C1092   1.384       .  A
C1084      C1095   1.421       .  A
C1085      C1093   1.385       .  A
C1085      C1096   1.422       .  A
C1086      C1087   1.361       .  A
C1086      H1098   1.055       .  S
C1087      H1099   1.073       .  S
C1088      C1089   1.373       .  A
C1088      H1100   1.072       .  S
C1089      H1101   1.076       .  S
C1090      C1091   1.369       .  A
C1090      H1102   1.082       .  S
C1091      H1103   1.078       .  S
C1092      C1093   1.377       .  A
C1092      H1104   1.082       .  S
C1093      H1105   1.080       .  S
C1097      N1108   1.453       .  S
N1108      C1112   1.368       .  A
N1108      C1109   1.357       .  A
C1109      C1110   1.379       .  A
C1109      C1262   1.469       .  S
C1110      C1111   1.369       .  A
C1110      H1113   1.082       .  S
C1111      C1112   1.383       .  A
C1111      H1114   1.083       .  S
C1112      C1152   1.490       .  S
N1115      C1119   1.369       .  A
N1115      C1116   1.363       .  A
N1115      C1151   1.448       .  S
C1116      C1643   1.381       .  A
C1116      C1243   1.480       .  S
C1117      C1642   1.381       .  A
C1117      C1118   1.369       .  A
C1117      H1120   1.082       .  S
C1118      C1645   1.382       .  A
C1118      H1121   1.083       .  S
C1119      C1644   1.382       .  A
C1119      C1710   1.495       .  S
N1122      C1126   1.372       .  A
N1122      C1123   1.367       .  A
N1122      C1186   1.455       .  S
C1123      C1124   1.386   1_655  A
C1123      C1227   1.492       .  S
C1124      C1125   1.365       .  A
C1124      H1127   1.082       .  S
C1125      C1126   1.379   1_455  A
C1125      H1128   1.082       .  S
N1129      C1134   1.355       .  A
N1129      C1133   1.354       .  A
N1129      H1161   1.044       .  S
N1130      C1137   1.355       .  A
N1130      C1138   1.349       .  A
N1131      C1136   1.358       .  A
N1131      C1135   1.355       .  A
N1131      H1162   1.044       .  S
N1132      C1139   1.352       .  A
N1132      C1140   1.349       .  A
C1133      C1149   1.413       .  A
C1134      C1150   1.412       .  A
C1135      C1143   1.379       .  A
C1135      C1152   1.415       .  A
C1136      C1151   1.415       .  A
C1136      C1144   1.383       .  A
C1137      C1149   1.420       .  A
C1137      C1145   1.388       .  A
C1138      C1152   1.404       .  A
C1138      C1146   1.380       .  A
C1139      C1147   1.384       .  A
C1139      C1150   1.407       .  A
C1140      C1148   1.383       .  A
C1140      C1151   1.409       .  A
C1141      C1142   1.378       .  A
C1141      H1153   1.083       .  S
C1142      H1154   1.082       .  S
C1143      C1144   1.371       .  A
C1143      H1155   1.077       .  S
C1144      H1156   1.074       .  S
C1145      C1146   1.376       .  A
C1145      H1157   1.080       .  S
C1146      H1158   1.080       .  S
C1147      C1148   1.377       .  A
C1147      H1159   1.083       .  S
C1148      H1160   1.078       .  S
N1163      C1168   1.350       .  A
N1163      C1167   1.349       .  A
N1163      H1195   1.044       .  S
N1164      C1171   1.356       .  A
N1164      C1172   1.355       .  A
N1165      C1170   1.360       .  A
N1165      C1169   1.359       .  A
N1165      H1196   1.036       .  S
N1166      C1173   1.357       .  A
N1166      C1174   1.354       .  A
C1167      C1175   1.381       .  A
C1167      C1183   1.402       .  A
C1168      C1184   1.403       .  A
C1168      C1176   1.381       .  A
C1169      C1177   1.384       .  A
C1169      C1186   1.424       .  A
C1170      C1185   1.432       .  A
C1170      C1178   1.390       .  A
C1171      C1183   1.418       .  A
C1171      C1179   1.383       .  A
C1172      C1186   1.418       .  A
C1172      C1180   1.381       .  A
C1173      C1181   1.382       .  A
C1173      C1184   1.419       .  A
C1174      C1182   1.383       .  A
C1174      C1185   1.420       .  A
C1175      C1176   1.378       .  A
C1175      H1713   1.077   1_545  S
C1176      H1714   1.075   1_545  S
C1177      C1178   1.375       .  A
C1177      H1189   1.081       .  S
C1178      H1190   1.080       .  S
C1179      C1180   1.375       .  A
C1179      H1191   1.080       .  S
C1180      H1192   1.073       .  S
C1181      C1182   1.375       .  A
C1181      H1193   1.078       .  S
C1182      H1194   1.073       .  S
C1183      C1590   1.492       .  S
C1184      C1645   1.496       .  S
H1187      C1701   1.076       .  S
H1188      C1702   1.075       .  S
Zn1197     O1201   1.888       .  S
Zn1197     O1202   1.936   1_545  S
Zn1197     O1206   1.937       .  S
Zn1197     O1213   1.969       .  S
Zn1198     O1201   1.973       .  S
Zn1198     O1203   2.006   1_545  S
Zn1198     O1205   2.077   1_545  S
Zn1198     O1209   2.027       .  S
Zn1199     O1201   2.001       .  S
Zn1199     O1207   2.015   1_545  S
Zn1199     O1210   2.055       .  S
Zn1200     O1201   1.958       .  S
Zn1200     O1208   2.014       .  S
Zn1200     O1211   2.029       .  S
Zn1200     O1212   2.062       .  S
O1202      C1214   1.263       .  A
O1203      C1215   1.275       .  A
O1204      C1216   1.281       .  A
O1205      C1214   1.276       .  A
O1207      C1215   1.274       .  A
O1208      C1217   1.276       .  A
O1209      C1218   1.275       .  A
O1210      C1217   1.278       .  A
O1211      C1218   1.276       .  A
O1212      C1219   1.276       .  A
O1213      C1219   1.266       .  A
C1214      C1246   1.466       .  S
C1215      C1570   1.469   1_554  S
C1216      C1291   1.482       .  S
C1217      C1493   1.483       .  S
C1218      C1538   1.473   1_554  S
C1219      C1259   1.470       .  S
C1220      C1225   1.383   1_655  A
C1220      C1221   1.416       .  A
C1220      S1226   1.730       .  A
C1221      C1222   1.417       .  A
C1221      H1232   1.082       .  S
C1222      C1231   1.385       .  A
C1223      C1224   1.395       .  A
C1223      S1229   1.703       .  A
C1224      H1233   1.083       .  S
C1225      C1228   1.363       .  A
S1226      C1227   1.732       .  A
C1227      C1228   1.388   1_655  A
C1228      H1234   1.083       .  S
S1229      C1230   1.721       .  A
C1230      C1480   1.483       .  S
C1231      H1498   1.083       .  S
H1235      C1494   1.083       .  S
C1236      C1241   1.386       .  A
C1236      C1237   1.404       .  A
C1236      S1242   1.717       .  A
C1237      C1238   1.408       .  A
C1237      H1248   1.083       .  S
C1238      C1247   1.372       .  A
C1238      C1239   1.385       .  A
C1239      C1766   1.400       .  A
C1239      S1245   1.707       .  A
C1240      C1765   1.400       .  A
C1240      C1767   1.403       .  A
C1240      H1249   1.083       .  S
C1241      C1766   1.403       .  A
C1241      C1770   1.366       .  A
S1242      C1769   1.722       .  A
C1243      C1244   1.387       .  A
C1243      S1768   1.722       .  A
C1244      C1767   1.366       .  A
C1244      H1250   1.083       .  S
S1245      C1246   1.721       .  A
C1246      C1247   1.393       .  A
C1247      H1251   1.084       .  S
C1252      C1257   1.387       .  A
C1252      C1253   1.402       .  A
C1252      S1258   1.702       .  A
C1253      C1254   1.402       .  A
C1253      H1264   1.083       .  S
C1254      C1263   1.374       .  A
C1254      C1255   1.387       .  A
C1255      C1256   1.403       .  A
C1255      S1261   1.703       .  A
C1256      C1257   1.402       .  A
C1256      H1265   1.083       .  S
C1257      C1260   1.375       .  A
S1258      C1259   1.726       .  A
C1259      C1260   1.386       .  A
C1260      H1266   1.083       .  S
S1261      C1262   1.723       .  A
C1262      C1263   1.384       .  A
C1263      H1267   1.083       .  S
C1268      C1273   1.387       .  A
C1268      C1269   1.405       .  A
C1268      S1274   1.708       .  A
C1269      C1270   1.405       .  A
C1269      H1280   1.083       .  S
C1270      C1279   1.377       .  A
C1270      C1271   1.387       .  A
C1271      C1272   1.401       .  A
C1271      S1277   1.700       .  A
C1272      C1273   1.401       .  A
C1272      H1281   1.083       .  S
C1273      C1276   1.373       .  A
S1274      C1275   1.725       .  A
C1275      C1276   1.387       .  A
C1275      C1481   1.475       .  S
C1276      H1282   1.083       .  S
S1277      C1278   1.724       .  A
C1278      C1279   1.387       .  A
C1279      H1283   1.083       .  S
C1284      C1289   1.387       .  A
C1284      C1285   1.398       .  A
C1284      S1290   1.687       .  A
C1285      C1286   1.395       .  A
C1285      H1296   1.083   1_545  S
C1286      C1295   1.375       .  A
C1286      C1287   1.387       .  A
C1287      C1288   1.412       .  A
C1287      S1293   1.704       .  A
C1288      C1289   1.408       .  A
C1288      H1297   1.083       .  S
C1289      C1292   1.389       .  A
S1290      C1291   1.726       .  A
C1291      C1292   1.392       .  A
C1292      H1298   1.083       .  S
S1293      C1820   1.732       .  A
C1294      C1821   1.382       .  A
C1294      S1819   1.732       .  A
C1295      C1820   1.381       .  A
C1295      H1299   1.083       .  S
C1300      C1305   1.387       .  A
C1300      C1301   1.404       .  A
C1301      C1302   1.403       .  A
C1302      C1311   1.376       .  A
C1302      C1303   1.388       .  A
C1303      C1304   1.397       .  A
C1303      S1309   1.696       .  A
C1304      C1305   1.398       .  A
C1304      H1313   1.083       .  S
C1305      C1308   1.369       .  A
S1306      C1307   1.726       .  A
C1307      C1478   1.470       .  S
C1308      H1577   1.084       .  S
S1309      C1310   1.721       .  A
C1310      C1311   1.384       .  A
C1311      H1315   1.083       .  S
H1314      C1571   1.084       .  S
N1316      C1320   1.355   1_655  A
N1316      C1317   1.354       .  A
N1316      C1358   1.447       .  S
C1317      C1318   1.384   1_655  A
C1317      C1573   1.467       .  S
C1318      C1319   1.372       .  A
C1318      H1321   1.083       .  S
C1319      C1320   1.382       .  A
C1319      H1322   1.083       .  S
N1323      C1327   1.370       .  A
N1323      C1324   1.367       .  A
N1323      C1359   1.455       .  S
C1324      C1851   1.378       .  A
C1324      C1557   1.477       .  S
C1325      C1850   1.378       .  A
C1325      C1326   1.364       .  A
C1325      H1328   1.083       .  S
C1326      C1853   1.384       .  A
C1326      H1329   1.083       .  S
C1327      C1852   1.383       .  A
C1327      C1972   1.494       .  S
N1330      C1334   1.378       .  A
N1330      C1331   1.363       .  A
N1330      C1448   1.458       .  S
C1331      C1332   1.376       .  A
C1331      C1541   1.473       .  S
C1332      C1333   1.364       .  A
C1332      H1335   1.083       .  S
C1333      C1334   1.384       .  A
C1333      H1336   1.083       .  S
C1334      C1357   1.505       .  S
N1337      C1342   1.354       .  A
N1337      C1341   1.355       .  A
N1337      H1369   1.032       .  S
N1338      C1345   1.358       .  A
N1338      C1346   1.356       .  A
N1339      C1344   1.359       .  A
N1339      C1343   1.358       .  A
N1339      H1370   1.035       .  S
N1340      C1347   1.356       .  A
N1340      C1348   1.355       .  A
C1341      C1349   1.374       .  A
C1341      C1357   1.413       .  A
C1342      C1358   1.408       .  A
C1342      C1350   1.375       .  A
C1343      C1351   1.381       .  A
C1343      C1360   1.423       .  A
C1344      C1359   1.422       .  A
C1344      C1352   1.382       .  A
C1345      C1357   1.426       .  A
C1345      C1353   1.385       .  A
C1346      C1360   1.424       .  A
C1346      C1354   1.386       .  A
C1347      C1355   1.384       .  A
C1347      C1358   1.421       .  A
C1348      C1356   1.385       .  A
C1348      C1359   1.422       .  A
C1349      C1350   1.361       .  A
C1349      H1361   1.054       .  S
C1350      H1362   1.074       .  S
C1351      C1352   1.372       .  A
C1351      H1363   1.071       .  S
C1352      H1364   1.077       .  S
C1353      C1354   1.370       .  A
C1353      H1365   1.082       .  S
C1354      H1366   1.078       .  S
C1355      C1356   1.377       .  A
C1355      H1367   1.082       .  S
C1356      H1368   1.081       .  S
C1360      N1371   1.454       .  S
N1371      C1375   1.368       .  A
N1371      C1372   1.357       .  A
C1372      C1373   1.379       .  A
C1372      C1525   1.470       .  S
C1373      C1374   1.369       .  A
C1373      H1376   1.082       .  S
C1374      C1375   1.383       .  A
C1374      H1377   1.083       .  S
C1375      C1415   1.491       .  S
N1378      C1382   1.369       .  A
N1378      C1379   1.363       .  A
N1378      C1414   1.448       .  S
C1379      C1906   1.382       .  A
C1379      C1506   1.480       .  S
C1380      C1905   1.382       .  A
C1380      C1381   1.368       .  A
C1380      H1383   1.082       .  S
C1381      C1908   1.382       .  A
C1381      H1384   1.083       .  S
C1382      C1907   1.382       .  A
C1382      C1973   1.495       .  S
N1385      C1389   1.374       .  A
N1385      C1386   1.372       .  A
N1385      C1449   1.457       .  S
C1386      C1387   1.390   1_655  A
C1386      C1490   1.505       .  S
C1387      C1388   1.361       .  A
C1387      H1390   1.079       .  S
C1388      C1389   1.375   1_455  A
C1388      H1391   1.082       .  S
N1392      C1397   1.355       .  A
N1392      C1396   1.354       .  A
N1392      H1424   1.044       .  S
N1393      C1400   1.354       .  A
N1393      C1401   1.349       .  A
N1394      C1399   1.358       .  A
N1394      C1398   1.356       .  A
N1394      H1425   1.044       .  S
N1395      C1402   1.352       .  A
N1395      C1403   1.349       .  A
C1396      C1412   1.411       .  A
C1397      C1413   1.411       .  A
C1398      C1406   1.379       .  A
C1398      C1415   1.416       .  A
C1399      C1414   1.415       .  A
C1399      C1407   1.383       .  A
C1400      C1412   1.420       .  A
C1400      C1408   1.388       .  A
C1401      C1415   1.404       .  A
C1401      C1409   1.381       .  A
C1402      C1410   1.384       .  A
C1402      C1413   1.407       .  A
C1403      C1411   1.383       .  A
C1403      C1414   1.409       .  A
C1404      C1405   1.378       .  A
C1404      H1416   1.083       .  S
C1405      H1417   1.082       .  S
C1406      C1407   1.371       .  A
C1406      H1418   1.077       .  S
C1407      H1419   1.074       .  S
C1408      C1409   1.376       .  A
C1408      H1420   1.080       .  S
C1409      H1421   1.080       .  S
C1410      C1411   1.377       .  A
C1410      H1422   1.083       .  S
C1411      H1423   1.078       .  S
N1426      C1431   1.350       .  A
N1426      C1430   1.349       .  A
N1426      H1458   1.044       .  S
N1427      C1434   1.356       .  A
N1427      C1435   1.356       .  A
N1428      C1433   1.360       .  A
N1428      C1432   1.359       .  A
N1428      H1459   1.037       .  S
N1429      C1436   1.357       .  A
N1429      C1437   1.354       .  A
C1430      C1438   1.381       .  A
C1430      C1446   1.402       .  A
C1431      C1447   1.403       .  A
C1431      C1439   1.381       .  A
C1432      C1440   1.383       .  A
C1432      C1449   1.423       .  A
C1433      C1448   1.432       .  A
C1433      C1441   1.390       .  A
C1434      C1446   1.420       .  A
C1434      C1442   1.383       .  A
C1435      C1449   1.420       .  A
C1435      C1443   1.382       .  A
C1436      C1444   1.382       .  A
C1436      C1447   1.419       .  A
C1437      C1445   1.383       .  A
C1437      C1448   1.420       .  A
C1438      C1439   1.379       .  A
C1438      H1976   1.076   1_545  S
C1439      H1977   1.075   1_545  S
C1440      C1441   1.375       .  A
C1440      H1452   1.081       .  S
C1441      H1453   1.080       .  S
C1442      C1443   1.376       .  A
C1442      H1454   1.081       .  S
C1443      H1455   1.073       .  S
C1444      C1445   1.375       .  A
C1444      H1456   1.078       .  S
C1445      H1457   1.073       .  S
C1446      C1853   1.495       .  S
C1447      C1908   1.495       .  S
H1450      C1964   1.076       .  S
H1451      C1965   1.075       .  S
Zn1460     O1464   1.890       .  S
Zn1460     O1465   1.934   1_545  S
Zn1460     O1469   1.937       .  S
Zn1460     O1476   1.965       .  S
Zn1461     O1464   1.976       .  S
Zn1461     O1466   2.006   1_545  S
Zn1461     O1468   2.079   1_545  S
Zn1461     O1472   2.029       .  S
Zn1462     O1464   2.001       .  S
Zn1462     O1470   2.016   1_545  S
Zn1462     O1473   2.053       .  S
Zn1463     O1464   1.964       .  S
Zn1463     O1471   2.022       .  S
Zn1463     O1474   2.032       .  S
Zn1463     O1475   2.068       .  S
O1465      C1477   1.263       .  A
O1466      C1478   1.275       .  A
O1467      C1479   1.282       .  A
O1468      C1477   1.276       .  A
O1470      C1478   1.274       .  A
O1471      C1480   1.277       .  A
O1472      C1481   1.275       .  A
O1473      C1480   1.278       .  A
O1474      C1481   1.276       .  A
O1475      C1482   1.277       .  A
O1476      C1482   1.266       .  A
C1477      C1509   1.467       .  S
C1479      C1554   1.485       .  S
C1482      C1522   1.470       .  S
C1483      C1488   1.381   1_655  A
C1483      C1484   1.415       .  A
C1483      S1489   1.731       .  A
C1484      C1485   1.418       .  A
C1484      H1495   1.082       .  S
C1485      C1494   1.383       .  A
C1486      C1487   1.395       .  A
C1486      S1492   1.701       .  A
C1487      H1496   1.083       .  S
C1488      C1491   1.362       .  A
S1489      C1490   1.735       .  A
C1490      C1491   1.393   1_655  A
C1491      H1497   1.080       .  S
S1492      C1493   1.721   1_556  A
C1499      C1504   1.386       .  A
C1499      C1500   1.404       .  A
C1499      S1505   1.718       .  A
C1500      C1501   1.408       .  A
C1500      H1511   1.083       .  S
C1501      C1510   1.372       .  A
C1501      C1502   1.385       .  A
C1502      C2029   1.400       .  A
C1502      S1508   1.708       .  A
C1503      C2028   1.400       .  A
C1503      C2030   1.403       .  A
C1503      H1512   1.083       .  S
C1504      C2029   1.403       .  A
C1504      C2033   1.366       .  A
S1505      C2032   1.722       .  A
C1506      C1507   1.388       .  A
C1506      S2031   1.722       .  A
C1507      C2030   1.366       .  A
C1507      H1513   1.083       .  S
S1508      C1509   1.721       .  A
C1509      C1510   1.394       .  A
C1510      H1514   1.084       .  S
C1515      C1520   1.387       .  A
C1515      C1516   1.403       .  A
C1515      S1521   1.702       .  A
C1516      C1517   1.402       .  A
C1516      H1527   1.083       .  S
C1517      C1526   1.375       .  A
C1517      C1518   1.387       .  A
C1518      C1519   1.403       .  A
C1518      S1524   1.703       .  A
C1519      C1520   1.403       .  A
C1519      H1528   1.083       .  S
C1520      C1523   1.375       .  A
S1521      C1522   1.726       .  A
C1522      C1523   1.386       .  A
C1523      H1529   1.083       .  S
S1524      C1525   1.723       .  A
C1525      C1526   1.384       .  A
C1526      H1530   1.083       .  S
C1531      C1536   1.387       .  A
C1531      C1532   1.405       .  A
C1531      S1537   1.707       .  A
C1532      C1533   1.404       .  A
C1532      H1543   1.083       .  S
C1533      C1542   1.376       .  A
C1533      C1534   1.387       .  A
C1534      C1535   1.401       .  A
C1534      S1540   1.700       .  A
C1535      C1536   1.400       .  A
C1535      H1544   1.083       .  S
C1536      C1539   1.373       .  A
S1537      C1538   1.724       .  A
C1538      C1539   1.386       .  A
C1539      H1545   1.083   1_556  S
S1540      C1541   1.723       .  A
C1541      C1542   1.386       .  A
C1542      H1546   1.083       .  S
C1547      C1552   1.387       .  A
C1547      C1548   1.400       .  A
C1547      S1553   1.690       .  A
C1548      C1549   1.396       .  A
C1548      H1559   1.083   1_545  S
C1549      C1558   1.377       .  A
C1549      C1550   1.387       .  A
C1550      C1551   1.412       .  A
C1550      S1556   1.705       .  A
C1551      C1552   1.408       .  A
C1551      H1560   1.083       .  S
C1552      C1555   1.390       .  A
S1553      C1554   1.727       .  A
C1554      C1555   1.393       .  A
C1555      H1561   1.083       .  S
S1556      C2083   1.733       .  A
C1557      C2084   1.382       .  A
C1557      S2082   1.732       .  A
C1558      C2083   1.382       .  A
C1558      H1562   1.083       .  S
C1563      C1568   1.387       .  A
C1563      C1564   1.405       .  A
C1564      C1565   1.404       .  A
C1565      C1574   1.376       .  A
C1565      C1566   1.388       .  A
C1566      C1567   1.397       .  A
C1566      S1572   1.696       .  A
C1567      C1568   1.397       .  A
C1567      H1576   1.083       .  S
C1568      C1571   1.369       .  A
S1569      C1570   1.726       .  A
S1572      C1573   1.721       .  A
C1573      C1574   1.384       .  A
C1574      H1578   1.083       .  S
N1579      C1583   1.355   1_655  A
N1579      C1580   1.354       .  A
N1579      C1621   1.447       .  S
C1580      C1581   1.383   1_655  A
C1580      C1836   1.467       .  S
C1581      C1582   1.373       .  A
C1581      H1584   1.083   1_565  S
C1582      C1583   1.382       .  A
C1582      H1585   1.083       .  S
N1586      C1590   1.369       .  A
N1586      C1587   1.366       .  A
N1586      C1622   1.455   1_545  S
C1587      C1820   1.475       .  S
C1588      C1589   1.364       .  A
C1588      H1591   1.083       .  S
C1589      H1592   1.083       .  S
N1593      C1597   1.378       .  A
N1593      C1594   1.363       .  A
N1593      C1711   1.459       .  S
C1594      C1595   1.376       .  A
C1594      C1804   1.473       .  S
C1595      C1596   1.363       .  A
C1595      H1598   1.083       .  S
C1596      C1597   1.384       .  A
C1596      H1599   1.083       .  S
C1597      C1620   1.505       .  S
N1600      C1605   1.354       .  A
N1600      C1604   1.355       .  A
N1600      H1632   1.033       .  S
N1601      C1608   1.358       .  A
N1601      C1609   1.355       .  A
N1602      C1607   1.359       .  A
N1602      C1606   1.358       .  A
N1602      H1633   1.036       .  S
N1603      C1610   1.356       .  A
N1603      C1611   1.355       .  A
C1604      C1612   1.374       .  A
C1604      C1620   1.413       .  A
C1605      C1621   1.408       .  A
C1605      C1613   1.375       .  A
C1606      C1614   1.381       .  A
C1606      C1623   1.422       .  A
C1607      C1622   1.421       .  A
C1607      C1615   1.382       .  A
C1608      C1620   1.426       .  A
C1608      C1616   1.385       .  A
C1609      C1623   1.424       .  A
C1609      C1617   1.386       .  A
C1610      C1618   1.384   1_565  A
C1610      C1621   1.421       .  A
C1611      C1619   1.385   1_565  A
C1611      C1622   1.421       .  A
C1612      C1613   1.361       .  A
C1612      H1624   1.055       .  S
C1613      H1625   1.073       .  S
C1614      C1615   1.372       .  A
C1614      H1626   1.071       .  S
C1615      H1627   1.076       .  S
C1616      C1617   1.370       .  A
C1616      H1628   1.082       .  S
C1617      H1629   1.079       .  S
C1618      C1619   1.377       .  A
C1618      H1630   1.082       .  S
C1619      H1631   1.080       .  S
C1623      N1634   1.453       .  S
N1634      C1638   1.367       .  A
N1634      C1635   1.357       .  A
C1635      C1636   1.379       .  A
C1635      C1788   1.469       .  S
C1636      C1637   1.369       .  A
C1636      H1639   1.082       .  S
C1637      C1638   1.383       .  A
C1637      H1640   1.083       .  S
C1638      C1678   1.489       .  S
N1641      C1645   1.369       .  A
N1641      C1642   1.363       .  A
N1641      C1677   1.449   1_545  S
C1642      C1769   1.479   1_545  S
C1643      C1644   1.369       .  A
C1643      H1646   1.082       .  S
C1644      H1647   1.083       .  S
N1648      C1652   1.373       .  A
N1648      C1649   1.371       .  A
N1648      C1712   1.456       .  S
C1649      C1650   1.389   1_655  A
C1649      C1753   1.502       .  S
C1650      C1651   1.362       .  A
C1650      H1653   1.080       .  S
C1651      C1652   1.376   1_455  A
C1651      H1654   1.082       .  S
N1655      C1660   1.355       .  A
N1655      C1659   1.354       .  A
N1655      H1687   1.044       .  S
N1656      C1663   1.355       .  A
N1656      C1664   1.349       .  A
N1657      C1662   1.358       .  A
N1657      C1661   1.355       .  A
N1657      H1688   1.044       .  S
N1658      C1665   1.352       .  A
N1658      C1666   1.349       .  A
C1659      C1675   1.413       .  A
C1660      C1676   1.412       .  A
C1661      C1669   1.379       .  A
C1661      C1678   1.416       .  A
C1662      C1677   1.415       .  A
C1662      C1670   1.383       .  A
C1663      C1675   1.420       .  A
C1663      C1671   1.388       .  A
C1664      C1678   1.403       .  A
C1664      C1672   1.380       .  A
C1665      C1673   1.385       .  A
C1665      C1676   1.407       .  A
C1666      C1674   1.383   1_565  A
C1666      C1677   1.409       .  A
C1667      C1668   1.378       .  A
C1667      H1679   1.083       .  S
C1668      H1680   1.082       .  S
C1669      C1670   1.372       .  A
C1669      H1681   1.077       .  S
C1670      H1682   1.074       .  S
C1671      C1672   1.375       .  A
C1671      H1683   1.080       .  S
C1672      H1684   1.080       .  S
C1673      C1674   1.376   1_565  A
C1673      H1685   1.083   1_565  S
C1674      H1686   1.078       .  S
N1689      C1694   1.350       .  A
N1689      C1693   1.350       .  A
N1689      H1721   1.044       .  S
N1690      C1697   1.356       .  A
N1690      C1698   1.356       .  A
N1691      C1696   1.360       .  A
N1691      C1695   1.359       .  A
N1691      H1722   1.036       .  S
N1692      C1699   1.357       .  A
N1692      C1700   1.354       .  A
C1693      C1701   1.381       .  A
C1693      C1709   1.402       .  A
C1694      C1710   1.403       .  A
C1694      C1702   1.381       .  A
C1695      C1703   1.384       .  A
C1695      C1712   1.424       .  A
C1696      C1711   1.433       .  A
C1696      C1704   1.390       .  A
C1697      C1709   1.420       .  A
C1697      C1705   1.383       .  A
C1698      C1712   1.420       .  A
C1698      C1706   1.381       .  A
C1699      C1707   1.382       .  A
C1699      C1710   1.418       .  A
C1700      C1708   1.382       .  A
C1700      C1711   1.420       .  A
C1701      C1702   1.378       .  A
C1703      C1704   1.375       .  A
C1703      H1715   1.081       .  S
C1704      H1716   1.080       .  S
C1705      C1706   1.376       .  A
C1705      H1717   1.080       .  S
C1706      H1718   1.073       .  S
C1707      C1708   1.374       .  A
C1707      H1719   1.078       .  S
C1708      H1720   1.072       .  S
Zn1723     O1727   1.891       .  S
Zn1723     O1728   1.933       .  S
Zn1723     O1732   1.940       .  S
Zn1723     O1739   1.965       .  S
Zn1724     O1727   1.977       .  S
Zn1724     O1729   2.008       .  S
Zn1724     O1731   2.079       .  S
Zn1724     O1735   2.029       .  S
Zn1725     O1727   1.999       .  S
Zn1725     O1733   2.014       .  S
Zn1725     O1736   2.055       .  S
Zn1726     O1727   1.964       .  S
Zn1726     O1734   2.021       .  S
Zn1726     O1737   2.029       .  S
Zn1726     O1738   2.061       .  S
O1728      C1740   1.262       .  A
O1729      C1741   1.276       .  A
O1730      C1742   1.282       .  A
O1731      C1740   1.276       .  A
O1733      C1741   1.274       .  A
O1734      C1743   1.276       .  A
O1735      C1744   1.275       .  A
O1736      C1743   1.278       .  A
O1737      C1744   1.276       .  A
O1738      C1745   1.276       .  A
O1739      C1745   1.266       .  A
C1740      C1772   1.467       .  S
C1741      C2096   1.469   1_554  S
C1742      C1817   1.484       .  S
C1743      C2019   1.483       .  S
C1744      C2064   1.474   1_554  S
C1745      C1785   1.468       .  S
C1746      C1751   1.382   1_655  A
C1746      C1747   1.415       .  A
C1746      S1752   1.731       .  A
C1747      C1748   1.418       .  A
C1747      H1758   1.082       .  S
C1748      C1757   1.383       .  A
C1749      C1750   1.395       .  A
C1749      S1755   1.706       .  A
C1750      H1759   1.083       .  S
C1751      C1754   1.362       .  A
S1752      C1753   1.734       .  A
C1753      C1754   1.392   1_655  A
C1754      H1760   1.081       .  S
S1755      C1756   1.719       .  A
C1756      C2006   1.482       .  S
C1757      H2024   1.083       .  S
H1761      C2020   1.083       .  S
C1762      C1767   1.386       .  A
C1762      C1763   1.404       .  A
C1762      S1768   1.718       .  A
C1763      C1764   1.408       .  A
C1763      H1774   1.083       .  S
C1764      C1773   1.372       .  A
C1764      C1765   1.385       .  A
C1765      S1771   1.708       .  A
C1766      H1775   1.083       .  S
C1769      C1770   1.387       .  A
C1770      H1776   1.083   1_565  S
S1771      C1772   1.721       .  A
C1772      C1773   1.394       .  A
C1773      H1777   1.084       .  S
C1778      C1783   1.388       .  A
C1778      C1779   1.402       .  A
C1778      S1784   1.701       .  A
C1779      C1780   1.401       .  A
C1779      H1790   1.083       .  S
C1780      C1789   1.374       .  A
C1780      C1781   1.387       .  A
C1781      C1782   1.402       .  A
C1781      S1787   1.702       .  A
C1782      C1783   1.402       .  A
C1782      H1791   1.083       .  S
C1783      C1786   1.374       .  A
S1784      C1785   1.726       .  A
C1785      C1786   1.385       .  A
C1786      H1792   1.083       .  S
S1787      C1788   1.722       .  A
C1788      C1789   1.384       .  A
C1789      H1793   1.083       .  S
C1794      C1799   1.387       .  A
C1794      C1795   1.405       .  A
C1794      S1800   1.707       .  A
C1795      C1796   1.404       .  A
C1795      H1806   1.083       .  S
C1796      C1805   1.376       .  A
C1796      C1797   1.387       .  A
C1797      C1798   1.401       .  A
C1797      S1803   1.699       .  A
C1798      C1799   1.400       .  A
C1798      H1807   1.083       .  S
C1799      C1802   1.373       .  A
S1800      C1801   1.724       .  A
C1801      C1802   1.386       .  A
C1801      C2007   1.472       .  S
C1802      H1808   1.083       .  S
S1803      C1804   1.724       .  A
C1804      C1805   1.386       .  A
C1805      H1809   1.083       .  S
C1810      C1815   1.387       .  A
C1810      C1811   1.400       .  A
C1810      S1816   1.690       .  A
C1811      C1812   1.396       .  A
C1811      H1822   1.083       .  S
C1812      C1821   1.377       .  A
C1812      C1813   1.387       .  A
C1813      C1814   1.412       .  A
C1813      S1819   1.705       .  A
C1814      C1815   1.408       .  A
C1814      H1823   1.083       .  S
C1815      C1818   1.389       .  A
S1816      C1817   1.727       .  A
C1817      C1818   1.393       .  A
C1818      H1824   1.083       .  S
C1821      H1825   1.083       .  S
C1826      C1831   1.387       .  A
C1826      C1827   1.405       .  A
C1827      C1828   1.404       .  A
C1828      C1837   1.376       .  A
C1828      C1829   1.388       .  A
C1829      C1830   1.397       .  A
C1829      S1835   1.695       .  A
C1830      C1831   1.397       .  A
C1830      H1839   1.083       .  S
C1831      C1834   1.369       .  A
S1832      C1833   1.726       .  A
C1833      C2004   1.469       .  S
C1834      H2103   1.084       .  S
S1835      C1836   1.721       .  A
C1836      C1837   1.384       .  A
C1837      H1841   1.083       .  S
H1840      C2097   1.084       .  S
N1842      C1846   1.355   1_655  A
N1842      C1843   1.354       .  A
N1842      C1884   1.446       .  S
C1843      C1844   1.383   1_655  A
C1843      C2099   1.467       .  S
C1844      C1845   1.373       .  A
C1844      H1847   1.083   1_565  S
C1845      C1846   1.382       .  A
C1845      H1848   1.083       .  S
N1849      C1853   1.371       .  A
N1849      C1850   1.368       .  A
N1849      C1885   1.457   1_545  S
C1850      C2083   1.477       .  S
C1851      C1852   1.365       .  A
C1851      H1854   1.082       .  S
C1852      H1855   1.083       .  S
N1856      C1860   1.379       .  A
N1856      C1857   1.363       .  A
N1856      C1974   1.459       .  S
C1857      C1858   1.376       .  A
C1857      C2067   1.473       .  S
C1858      C1859   1.363       .  A
C1858      H1861   1.083       .  S
C1859      C1860   1.384       .  A
C1859      H1862   1.083       .  S
C1860      C1883   1.506       .  S
N1863      C1868   1.353       .  A
N1863      C1867   1.355       .  A
N1863      H1895   1.036       .  S
N1864      C1871   1.359       .  A
N1864      C1872   1.355       .  A
N1865      C1870   1.360       .  A
N1865      C1869   1.357       .  A
N1865      H1896   1.038       .  S
N1866      C1873   1.356       .  A
N1866      C1874   1.356       .  A
C1867      C1875   1.374       .  A
C1867      C1883   1.412       .  A
C1868      C1884   1.408       .  A
C1868      C1876   1.375       .  A
C1869      C1877   1.381       .  A
C1869      C1886   1.424       .  A
C1870      C1885   1.423       .  A
C1870      C1878   1.382       .  A
C1871      C1883   1.425       .  A
C1871      C1879   1.384       .  A
C1872      C1886   1.425       .  A
C1872      C1880   1.387       .  A
C1873      C1881   1.384   1_565  A
C1873      C1884   1.421       .  A
C1874      C1882   1.385   1_565  A
C1874      C1885   1.422       .  A
C1875      C1876   1.361       .  A
C1875      H1887   1.055       .  S
C1876      H1888   1.073       .  S
C1877      C1878   1.373       .  A
C1877      H1889   1.071       .  S
C1878      H1890   1.076       .  S
C1879      C1880   1.369       .  A
C1879      H1891   1.082       .  S
C1880      H1892   1.078       .  S
C1881      C1882   1.377       .  A
C1881      H1893   1.082       .  S
C1882      H1894   1.081       .  S
C1886      N1897   1.454       .  S
N1897      C1901   1.368       .  A
N1897      C1898   1.357       .  A
C1898      C1899   1.380       .  A
C1898      C2051   1.470       .  S
C1899      C1900   1.369       .  A
C1899      H1902   1.082       .  S
C1900      C1901   1.382       .  A
C1900      H1903   1.083       .  S
C1901      C1941   1.490       .  S
N1904      C1908   1.369       .  A
N1904      C1905   1.364       .  A
N1904      C1940   1.449   1_545  S
C1905      C2032   1.481   1_545  S
C1906      C1907   1.369       .  A
C1906      H1909   1.082       .  S
C1907      H1910   1.083       .  S
N1911      C1915   1.373       .  A
N1911      C1912   1.370       .  A
N1911      C1975   1.456       .  S
C1912      C1913   1.388   1_655  A
C1912      C2016   1.500       .  S
C1913      C1914   1.362       .  A
C1913      H1916   1.081       .  S
C1914      C1915   1.377   1_455  A
C1914      H1917   1.082       .  S
N1918      C1923   1.355       .  A
N1918      C1922   1.355       .  A
N1918      H1950   1.044       .  S
N1919      C1926   1.355       .  A
N1919      C1927   1.349       .  A
N1920      C1925   1.358       .  A
N1920      C1924   1.355       .  A
N1920      H1951   1.044       .  S
N1921      C1928   1.352       .  A
N1921      C1929   1.350       .  A
C1922      C1938   1.413       .  A
C1923      C1939   1.412       .  A
C1924      C1932   1.379       .  A
C1924      C1941   1.415       .  A
C1925      C1940   1.415       .  A
C1925      C1933   1.383       .  A
C1926      C1938   1.420       .  A
C1926      C1934   1.388       .  A
C1927      C1941   1.404       .  A
C1927      C1935   1.380       .  A
C1928      C1936   1.384   1_565  A
C1928      C1939   1.408       .  A
C1929      C1937   1.383   1_565  A
C1929      C1940   1.410       .  A
C1930      C1931   1.378       .  A
C1930      H1942   1.083       .  S
C1931      H1943   1.082       .  S
C1932      C1933   1.371       .  A
C1932      H1944   1.077       .  S
C1933      H1945   1.074       .  S
C1934      C1935   1.376       .  A
C1934      H1946   1.080       .  S
C1935      H1947   1.080       .  S
C1936      C1937   1.376       .  A
C1936      H1948   1.083       .  S
C1937      H1949   1.078       .  S
N1952      C1957   1.350       .  A
N1952      C1956   1.349       .  A
N1952      H1984   1.044       .  S
N1953      C1960   1.356       .  A
N1953      C1961   1.355       .  A
N1954      C1959   1.360       .  A
N1954      C1958   1.360       .  A
N1954      H1985   1.036       .  S
N1955      C1962   1.357       .  A
N1955      C1963   1.354       .  A
C1956      C1964   1.381       .  A
C1956      C1972   1.402       .  A
C1957      C1973   1.403       .  A
C1957      C1965   1.381       .  A
C1958      C1966   1.384       .  A
C1958      C1975   1.424       .  A
C1959      C1974   1.433       .  A
C1959      C1967   1.390       .  A
C1960      C1972   1.419       .  A
C1960      C1968   1.383       .  A
C1961      C1975   1.419       .  A
C1961      C1969   1.382       .  A
C1962      C1970   1.382       .  A
C1962      C1973   1.419       .  A
C1963      C1971   1.383       .  A
C1963      C1974   1.420       .  A
C1964      C1965   1.378       .  A
C1966      C1967   1.375       .  A
C1966      H1978   1.081       .  S
C1967      H1979   1.080       .  S
C1968      C1969   1.376       .  A
C1968      H1980   1.080       .  S
C1969      H1981   1.073       .  S
C1970      C1971   1.375       .  A
C1970      H1982   1.078       .  S
C1971      H1983   1.073       .  S
Zn1986     O1990   1.891       .  S
Zn1986     O1991   1.935       .  S
Zn1986     O1995   1.938       .  S
Zn1986     O2002   1.963       .  S
Zn1987     O1990   1.977       .  S
Zn1987     O1992   2.006       .  S
Zn1987     O1994   2.079       .  S
Zn1987     O1998   2.026       .  S
Zn1988     O1990   1.997       .  S
Zn1988     O1996   2.014       .  S
Zn1988     O1999   2.047       .  S
Zn1989     O1990   1.968       .  S
Zn1989     O1997   2.033       .  S
Zn1989     O2000   2.032       .  S
Zn1989     O2001   2.067       .  S
O1991      C2003   1.262       .  A
O1992      C2004   1.275       .  A
O1993      C2005   1.281       .  A
O1994      C2003   1.276       .  A
O1996      C2004   1.274       .  A
O1997      C2006   1.277       .  A
O1998      C2007   1.275       .  A
O1999      C2006   1.277       .  A
O2000      C2007   1.276       .  A
O2001      C2008   1.277       .  A
O2002      C2008   1.266       .  A
C2003      C2035   1.467       .  S
C2005      C2080   1.484       .  S
C2008      C2048   1.470       .  S
C2009      C2014   1.382   1_655  A
C2009      C2010   1.415       .  A
C2009      S2015   1.731       .  A
C2010      C2011   1.418       .  A
C2010      H2021   1.082       .  S
C2011      C2020   1.383       .  A
C2012      C2013   1.395       .  A
C2012      S2018   1.704       .  A
C2013      H2022   1.083       .  S
C2014      C2017   1.361       .  A
S2015      C2016   1.733       .  A
C2016      C2017   1.391   1_655  A
C2017      H2023   1.082       .  S
S2018      C2019   1.720   1_556  A
C2025      C2030   1.386       .  A
C2025      C2026   1.404       .  A
C2025      S2031   1.718       .  A
C2026      C2027   1.408       .  A
C2026      H2037   1.083       .  S
C2027      C2036   1.371       .  A
C2027      C2028   1.385       .  A
C2028      S2034   1.708       .  A
C2029      H2038   1.083       .  S
C2032      C2033   1.388       .  A
C2033      H2039   1.083   1_565  S
S2034      C2035   1.721       .  A
C2035      C2036   1.394       .  A
C2036      H2040   1.084       .  S
C2041      C2046   1.387       .  A
C2041      C2042   1.403       .  A
C2041      S2047   1.702       .  A
C2042      C2043   1.402       .  A
C2042      H2053   1.083       .  S
C2043      C2052   1.374       .  A
C2043      C2044   1.387       .  A
C2044      C2045   1.402       .  A
C2044      S2050   1.703       .  A
C2045      C2046   1.402       .  A
C2045      H2054   1.083       .  S
C2046      C2049   1.375       .  A
S2047      C2048   1.726       .  A
C2048      C2049   1.385       .  A
C2049      H2055   1.083       .  S
S2050      C2051   1.723       .  A
C2051      C2052   1.384       .  A
C2052      H2056   1.083       .  S
C2057      C2062   1.387       .  A
C2057      C2058   1.405       .  A
C2057      S2063   1.707       .  A
C2058      C2059   1.404       .  A
C2058      H2069   1.083       .  S
C2059      C2068   1.377       .  A
C2059      C2060   1.387       .  A
C2060      C2061   1.401       .  A
C2060      S2066   1.700       .  A
C2061      C2062   1.401       .  A
C2061      H2070   1.083       .  S
C2062      C2065   1.373       .  A
S2063      C2064   1.724       .  A
C2064      C2065   1.387       .  A
C2065      H2071   1.083   1_556  S
S2066      C2067   1.724       .  A
C2067      C2068   1.386       .  A
C2068      H2072   1.083       .  S
C2073      C2078   1.387       .  A
C2073      C2074   1.400       .  A
C2073      S2079   1.689       .  A
C2074      C2075   1.396       .  A
C2074      H2085   1.083       .  S
C2075      C2084   1.377       .  A
C2075      C2076   1.387       .  A
C2076      C2077   1.412       .  A
C2076      S2082   1.705       .  A
C2077      C2078   1.408       .  A
C2077      H2086   1.083       .  S
C2078      C2081   1.389       .  A
S2079      C2080   1.727       .  A
C2080      C2081   1.393       .  A
C2081      H2087   1.083       .  S
C2084      H2088   1.083       .  S
C2089      C2094   1.387       .  A
C2089      C2090   1.405       .  A
C2090      C2091   1.403       .  A
C2091      C2100   1.376       .  A
C2091      C2092   1.389       .  A
C2092      C2093   1.397       .  A
C2092      S2098   1.696       .  A
C2093      C2094   1.397       .  A
C2093      H2102   1.083       .  S
C2094      C2097   1.369       .  A
S2095      C2096   1.726       .  A
S2098      C2099   1.721       .  A
C2099      C2100   1.383       .  A
C2100      H2104   1.083       .  S
