geometry optimzed in LAMMPS
_audit_creation_date              2020-11-30 
_audit_creation_method            'lammps2cif' 
_symmetry_space_group_name_H-M    'P1' 
_symmetry_Int_Tables_number       1 
_symmetry_cell_setting            triclinic 
loop_ 
_symmetry_equiv_pos_as_xyz 
  x,y,z 
_cell_length_a                    36.12168173 
_cell_length_b                    36.366635412532744 
_cell_length_c                    36.303507689235175 
_cell_angle_alpha                 89.91384111652144 
_cell_angle_beta                  90.01959239563335 
_cell_angle_gamma                 89.99849578755703 
loop_ 
_atom_site_label 
_atom_site_type_symbol 
_atom_site_fract_x 
_atom_site_fract_y 
_atom_site_fract_z 
_atom_site_charge 
O1          O  0.92922944  0.00865674  0.93428813    -0.77800
C2          C  0.02269125  0.93551510  0.92797121     0.83300
O3          O  0.93862966  0.95857665  0.05746716    -0.78900
O4          O  0.07205424  0.97329382  0.03513574    -0.80400
O5          O  0.03448878  0.08258924  0.96638455    -0.80200
O6          O  0.94552775  0.06696661  0.94287981    -0.78800
Zn7        Zn  0.96070870  0.97732373  0.96685414     1.55700
O8          O  0.07599500  0.03736203  0.96927131    -0.80200
Cd9        Cd  0.98546333  0.05921028  0.98378652     1.59700
Cd10       Cd  0.98146065  0.99743867  0.05097565     1.59600
O11         O  0.97091207  0.08844440  0.03023105    -0.80200
O12         O  0.99335405  0.00610711  0.99720385    -1.90700
Cd13       Cd  0.04612536  0.99149443  0.98692646     1.59900
O14         O  0.96715175  0.04744394  0.07589970    -0.80100
O15         O  0.04866103  0.95050764  0.94648549    -0.78800
C16         C  0.91985705  0.94256464  0.03233798     0.83700
C17         C  0.92596209  0.04263224  0.92687127     0.83400
O18         O  0.98881635  0.94350958  0.93325569    -0.77700
C19         C  0.06762433  0.07096216  0.96318688     0.84200
O20         O  0.92636978  0.94801881  0.99830266    -0.77800
C21         C  0.96566665  0.08056432  0.06406173     0.84300
C22         C  0.06179822  0.97090226  0.06874618     0.84700
O23         O  0.02868254  0.97867277  0.07844825    -0.80300
O24         O  0.07481233  0.25286562  0.19174345    -0.77800
C25         C  0.06604284  0.18021373  0.28167088     0.83300
O26         O  0.94676749  0.20552395  0.19596818    -0.78900
O27         O  0.96825803  0.23187672  0.32742027    -0.80400
O28         O  0.03474613  0.33559332  0.28387371    -0.80200
O29         O  0.06178485  0.31244443  0.19676590    -0.78800
Zn30       Zn  0.03547654  0.22548879  0.21778076     1.55700
O31         O  0.03605937  0.29182155  0.32696969    -0.80200
Cd32       Cd  0.01921766  0.30890621  0.23580634     1.59700
Cd33       Cd  0.95268263  0.24644461  0.23610167     1.59600
O34         O  0.97279610  0.33651950  0.21705475    -0.80200
O35         O  0.00599927  0.25664387  0.24770265    -1.90700
Cd36       Cd  0.01711368  0.24504893  0.30075478     1.59900
O37         O  0.92782063  0.29441342  0.21728071    -0.80100
O38         O  0.05394060  0.20085264  0.30734942    -0.78800
C39         C  0.97176985  0.19196443  0.17522598     0.83700
C40         C  0.08140363  0.28624715  0.18396937     0.83400
O41         O  0.05957212  0.18734361  0.24802253    -0.77700
C42         C  0.03958958  0.32536860  0.31718159     0.84200
O43         O  0.00581668  0.19942430  0.17973803    -0.77800
C44         C  0.93906002  0.32731196  0.21217078     0.84300
C45         C  0.93458805  0.22819730  0.31751135     0.84700
O46         O  0.92472144  0.23175421  0.28390505    -0.80300
O47         O  0.74986579  0.18319425  0.55800430    -0.77800
C48         C  0.68321450  0.28359845  0.57031128     0.83300
O49         O  0.70007570  0.19265511  0.44307440    -0.78900
O50         O  0.71843709  0.32644504  0.45937034    -0.80400
O51         O  0.82701856  0.28744113  0.53029338    -0.80200
O52         O  0.80920352  0.19692835  0.54895353    -0.78800
Zn53       Zn  0.71884801  0.21920712  0.53059969     1.55700
O54         O  0.78313582  0.33006612  0.52402162    -0.80200
Cd55       Cd  0.80231043  0.23983353  0.51087340     1.59700
Cd56       Cd  0.73788512  0.23583801  0.44656845     1.59600
O57         O  0.83019047  0.22767285  0.46240335    -0.80200
O58         O  0.74876822  0.24908595  0.49904945    -1.90700
Cd59       Cd  0.73612895  0.30191111  0.50772723     1.59900
O60         O  0.78641562  0.22292670  0.41939703    -0.80100
O61         O  0.69607370  0.30787996  0.54845470    -0.78800
C62         C  0.67939926  0.17954517  0.46833673     0.83700
C63         C  0.78404994  0.17713962  0.56366645     0.83400
O64         O  0.69123518  0.24969639  0.56718154    -0.77700
C65         C  0.81630367  0.32084150  0.53180828     0.84200
O66         O  0.68241954  0.18936606  0.50181366    -0.77800
C67         C  0.82035972  0.22250609  0.42901029     0.84300
C68         C  0.71321294  0.31491500  0.42661826     0.84700
O69         O  0.71769495  0.28117026  0.41811419    -0.80300
O70         O  0.74864113  0.05889153  0.67781650    -0.77800
C71         C  0.67723915  0.96641885  0.67848890     0.83300
O72         O  0.69561820  0.05136739  0.80242930    -0.78900
O73         O  0.72033897  0.91990821  0.78222751    -0.80400
O74         O  0.82930691  0.96325582  0.71967977    -0.80200
O75         O  0.80800767  0.05033777  0.69189080    -0.78800
Zn76       Zn  0.71797758  0.03071742  0.71394256     1.55700
O77         O  0.78532706  0.92026253  0.71776632    -0.80200
Cd78       Cd  0.80207188  0.01159190  0.73427498     1.59700
Cd79       Cd  0.73669559  0.01142725  0.79748431     1.59600
O80         O  0.82792446  0.03146751  0.78142433    -0.80200
O81         O  0.74850644  0.00021568  0.74477923    -1.90700
Cd82       Cd  0.73740121  0.94693728  0.73434529     1.59900
O83         O  0.78354877  0.03061710  0.82400694    -0.80100
O84         O  0.69664319  0.94143091  0.69385273    -0.78800
C85         C  0.68079904  0.07108081  0.77740534     0.83700
C86         C  0.78283497  0.06504225  0.67210848     0.83400
O87         O  0.68233571  0.00038855  0.68494643    -0.77700
C88         C  0.81914279  0.92998601  0.71462166     0.84200
O89         O  0.68812242  0.06660587  0.74344977    -0.77800
C90         C  0.81697824  0.03663477  0.81445933     0.84300
C91         C  0.71631078  0.93035998  0.81555787     0.84700
O92         O  0.72090373  0.96388411  0.82490117    -0.80300
O93         O  0.17982470  0.99709218  0.18684224    -0.77800
C94         C  0.17138951  0.06407785  0.28147975     0.83300
O95         O  0.30360125  0.04766452  0.20039437    -0.78900
O96         O  0.27719898  0.02802516  0.33154828    -0.80400
O97         O  0.21619363  0.91720761  0.28771313    -0.80200
O98         O  0.19036991  0.93801734  0.19852280    -0.78800
Zn99       Zn  0.21341466  0.02667611  0.21875636     1.55700
O100        O  0.21567247  0.96094828  0.33073749    -0.80200
Cd101      Cd  0.23183438  0.94390729  0.23928738     1.59700
Cd102      Cd  0.29674262  0.00846049  0.24180203     1.59600
O103        O  0.28026605  0.91795125  0.22234525    -0.80200
O104        O  0.24305764  0.99693422  0.25083351    -1.90700
Cd105      Cd  0.23071335  0.00891989  0.30365913     1.59900
O106        O  0.32422185  0.96084670  0.22630754    -0.80100
O107        O  0.18804073  0.04767693  0.30777140    -0.78800
C108        C  0.27901330  0.06282176  0.18028939     0.83700
C109        C  0.17307041  0.96333403  0.18117112     0.83400
O110        O  0.18008504  0.05862460  0.24798727    -0.77700
C111        C  0.21211740  0.92737234  0.32117480     0.84200
O112        O  0.24464830  0.05684219  0.18494035    -0.77800
C113        C  0.31413937  0.92782338  0.21993919     0.84300
C114        C  0.31103705  0.03250557  0.32249870     0.84700
O115        O  0.32214810  0.02692891  0.28961028    -0.80300
O116        O  0.05968230  0.49951055  0.57035641    -0.77800
C117        C  0.07272995  0.56573538  0.47258364     0.83300
O118        O  0.94118734  0.55387241  0.55381353    -0.78900
O119        O  0.96300597  0.53024353  0.42350231    -0.80400
O120        O  0.02878517  0.42245963  0.46539698    -0.80200
O121        O  0.05237969  0.44101981  0.55403999    -0.78800
Zn122      Zn  0.03010974  0.52934351  0.53498279     1.55700
O123        O  0.02871602  0.46702197  0.42312227    -0.80200
Cd124      Cd  0.01131500  0.44737307  0.51364875     1.59700
Cd125      Cd  0.94685436  0.51206333  0.51462148     1.59600
O126        O  0.96313257  0.42042616  0.52993649    -0.80200
O127        O  0.99986816  0.50046805  0.50333234    -1.90700
Cd128      Cd  0.01106782  0.51376059  0.45054712     1.59900
O129        O  0.92065614  0.46495142  0.53226075    -0.80100
O130        O  0.05284428  0.55362145  0.44622519    -0.78800
C131        C  0.96690041  0.57277310  0.56863350     0.83700
C132        C  0.06735057  0.46565052  0.57409921     0.83400
O133        O  0.06608210  0.55724359  0.50581922    -0.77700
C134        C  0.03359393  0.43348354  0.43234924     0.84200
O135        O  0.00085025  0.56589370  0.56281145    -0.77800
C136        C  0.92993743  0.43125275  0.53540132     0.84300
C137        C  0.92915459  0.53263807  0.43335564     0.84700
O138        O  0.91929899  0.52714506  0.46668321    -0.80300
O139        O  0.43080973  0.30752375  0.74844951    -0.77800
C140        C  0.43692654  0.21630933  0.82040611     0.83300
O141        O  0.55701501  0.30774371  0.80074514    -0.78900
O142        O  0.53770115  0.17380696  0.77265541    -0.80400
O143        O  0.47526018  0.21891103  0.66605132    -0.80200
O144        O  0.44827808  0.30597582  0.68972730    -0.78800
Zn145      Zn  0.46884634  0.28157442  0.77829853     1.55700
O146        O  0.47271070  0.17523571  0.70913912    -0.80200
Cd147      Cd  0.49047315  0.26632895  0.69482255     1.59700
Cd148      Cd  0.55339669  0.26499079  0.76191307     1.59600
O149        O  0.53903092  0.28466803  0.67041231    -0.80200
O150        O  0.50072951  0.25338051  0.74785263    -1.90700
Cd151      Cd  0.48953682  0.20027707  0.75726955     1.59900
O152        O  0.58150445  0.28128721  0.71497175    -0.80100
O153        O  0.45038457  0.19210918  0.79888987    -0.78800
C154        C  0.53046711  0.32753203  0.81278482     0.83700
C155        C  0.42636686  0.31700752  0.71500209     0.83400
O156        O  0.44331450  0.25040177  0.81575450    -0.77700
C157        C  0.46982986  0.18551442  0.67564298     0.84200
O158        O  0.49697345  0.32014610  0.80500304    -0.77800
C159        C  0.57244629  0.28748678  0.68154346     0.84300
C160        C  0.57065724  0.18373522  0.78036328     0.84700
O161        O  0.58039061  0.21751683  0.77966365    -0.80300
O162        O  0.81752315  0.75489990  0.94156843    -0.77800
C163        C  0.71658332  0.82047151  0.92875096     0.83300
O164        O  0.80074192  0.80665416  0.05979997    -0.78900
O165        O  0.67025277  0.78151227  0.03682060    -0.80400
O166        O  0.71392894  0.67488773  0.97048499    -0.80200
O167        O  0.80248582  0.69589462  0.94858095    -0.78800
Zn168      Zn  0.78043549  0.78405140  0.96988904     1.55700
O169        O  0.66945237  0.71736683  0.97203668    -0.80200
Cd170      Cd  0.76129887  0.70077376  0.98840374     1.59700
Cd171      Cd  0.76223884  0.76346641  0.05344641     1.59600
O172        O  0.77702650  0.67242059  0.03560141    -0.80200
O173        O  0.75006834  0.75340176  0.00018803    -1.90700
Cd174      Cd  0.69668166  0.76477221  0.98880813     1.59900
O175        O  0.77962706  0.71522018  0.07937993    -0.80100
O176        O  0.69119322  0.80470377  0.94740379    -0.78800
C177        C  0.81369506  0.82704419  0.03419868     0.83700
C178        C  0.82249772  0.72105530  0.93440076     0.83400
O179        O  0.75067110  0.81382511  0.93427000    -0.77700
C180        C  0.68014768  0.68435801  0.96676630     0.84200
O181        O  0.80715130  0.82033020  0.00049345    -0.77800
C182        C  0.78246226  0.68175883  0.06905143     0.84300
C183        C  0.68041997  0.78410009  0.07044205     0.84700
O184        O  0.71387209  0.77842833  0.08024990    -0.80300
O185        O  0.32080935  0.24410503  0.93794738    -0.77800
C186        C  0.22416449  0.31645901  0.93499335     0.83300
O187        O  0.31451509  0.29299477  0.05861287    -0.78900
O188        O  0.18079693  0.27384085  0.04053862    -0.80400
O189        O  0.21773652  0.16711000  0.96741289    -0.80200
O190        O  0.30907454  0.18478413  0.94720064    -0.78800
Zn191      Zn  0.28818245  0.27414104  0.96961028     1.55700
O192        O  0.17548564  0.21137299  0.97337424    -0.80200
Cd193      Cd  0.26661237  0.19086158  0.98624555     1.59700
Cd194      Cd  0.27274438  0.25312950  0.05277910     1.59600
O195        O  0.28094691  0.16208709  0.03346841    -0.80200
O196        O  0.25801011  0.24378118  0.00000032    -1.90700
Cd197      Cd  0.20468094  0.25712134  0.99120111     1.59900
O198        O  0.28908344  0.20418266  0.07743822    -0.80100
O199        O  0.19882685  0.29890360  0.95198189    -0.78800
C200        C  0.33133228  0.30960037  0.03258712     0.83700
C201        C  0.32769091  0.21040157  0.93190107     0.83400
O202        O  0.25827276  0.30902158  0.93948426    -0.77700
C203        C  0.18428022  0.17833775  0.96542619     0.84200
O204        O  0.32287358  0.30408955  0.99911905    -0.77800
C205        C  0.28880413  0.17080037  0.06663071     0.84300
C206        C  0.19289981  0.27652204  0.07349400     0.84700
O207        O  0.22661790  0.27005784  0.08167454    -0.80300
O208        O  0.75103683  0.42904262  0.30779617    -0.77800
C209        C  0.82381346  0.43339929  0.21487346     0.83300
O210        O  0.80243676  0.55469409  0.30171446    -0.78900
O211        O  0.77657026  0.53379566  0.16919577    -0.80400
O212        O  0.66965660  0.47107833  0.21320768    -0.80200
O213        O  0.69185408  0.44474581  0.30000382    -0.78800
Zn214      Zn  0.78139825  0.46606251  0.27986982     1.55700
O215        O  0.71363832  0.46868357  0.17026726    -0.80200
Cd216      Cd  0.69709364  0.48643126  0.26096934     1.59700
Cd217      Cd  0.76187901  0.54988170  0.26073831     1.59600
O218        O  0.67025106  0.53348708  0.27925573    -0.80200
O219        O  0.75050146  0.49702852  0.24977573    -1.90700
Cd220      Cd  0.76110926  0.48615586  0.19657919     1.59900
O221        O  0.71393805  0.57668653  0.27773117    -0.80100
O222        O  0.80313411  0.44750783  0.19018726    -0.78800
C223        C  0.81727943  0.52962196  0.32143365     0.83700
C224        C  0.71674001  0.42448297  0.31445509     0.83400
O225        O  0.81862258  0.43928490  0.24901651    -0.77700
C226        C  0.67984712  0.46576980  0.17999644     0.84200
O227        O  0.81023002  0.49570586  0.31656368    -0.66600
C228        C  0.68042905  0.56687488  0.28310934     0.84300
C229        C  0.78182136  0.56698258  0.17920948     0.84700
O230        O  0.77865147  0.57668943  0.21287510    -0.80300
O231        O  0.43963551  0.93168527  0.49721730    -0.77800
C232        C  0.42439432  0.03294925  0.43167748     0.83300
O233        O  0.55541953  0.94765808  0.44329544    -0.78900
O234        O  0.53505517  0.07675832  0.46717217    -0.80400
O235        O  0.46896015  0.03780344  0.57551336    -0.80200
O236        O  0.44504013  0.94861666  0.55585332    -0.78800
Zn237      Zn  0.46589614  0.96929825  0.46710965     1.55700
O238        O  0.47211298  0.08067508  0.53180187    -0.80200
Cd239      Cd  0.48483381  0.98968937  0.54951748     1.59700
Cd240      Cd  0.55075867  0.98626989  0.48616320     1.59600
O241        O  0.53200349  0.97296969  0.57663223    -0.80200
O242        O  0.49737112  0.99919349  0.49672591    -1.90700
Cd243      Cd  0.48699410  0.05190822  0.48470194     1.59900
O244        O  0.57631910  0.96751690  0.53424630    -0.80100
O245        O  0.44555113  0.05760534  0.44505203    -0.78800
C246        C  0.52927713  0.93505978  0.42327838     0.83700
C247        C  0.43233840  0.92717837  0.53116334     0.83400
O248        O  0.42829922  0.99907533  0.43951378    -0.77700
C249        C  0.46684394  0.07130480  0.56527740     0.84200
O250        O  0.49558428  0.94254582  0.43000677    -0.77800
C251        C  0.56532199  0.96573590  0.56767422     0.84300
C252        C  0.56889710  0.06701562  0.46497773     0.84700
O253        O  0.57910686  0.03390424  0.47096756    -0.80300
O254        O  0.00229710  0.69047817  0.68431299    -0.77800
C255        C  0.07538906  0.77989488  0.68607957     0.83300
O256        O  0.05389327  0.69919015  0.81082774    -0.78900
O257        O  0.02526815  0.83083666  0.78344569    -0.80400
O258        O  0.92002176  0.78333951  0.72340595    -0.80200
O259        O  0.94292066  0.69573249  0.69983561    -0.78800
Zn260      Zn  0.03203036  0.71726721  0.72179971     1.55700
O261        O  0.96400469  0.82590049  0.71730397    -0.80200
Cd262      Cd  0.94800005  0.73618023  0.74065974     1.59700
Cd263      Cd  0.01423261  0.74063002  0.80381359     1.59600
O264        O  0.92241128  0.71966329  0.78921833    -0.80200
O265        O  0.00133342  0.74870181  0.75068159    -1.90700
Cd266      Cd  0.01165201  0.80103233  0.73663576     1.59900
O267        O  0.96687711  0.72504185  0.83154509    -0.80100
O268        O  0.05415963  0.80534683  0.69778104    -0.78800
C269        C  0.06585680  0.67649689  0.78684939     0.83700
C270        C  0.96835368  0.68274671  0.67921675     0.83400
O271        O  0.07034595  0.74636664  0.69487504    -0.77700
C272        C  0.93012762  0.81612154  0.71567690     0.84200
O273        O  0.05780638  0.67962231  0.75288030    -0.77800
C274        C  0.93340078  0.71828249  0.82262931     0.84300
C275        C  0.03091006  0.82285858  0.81723083     0.84700
O276        O  0.03012172  0.78964709  0.82868515    -0.80300
O277        O  0.42997245  0.80844958  0.25215844    -0.77800
C278        C  0.42986757  0.71412067  0.32156539     0.83300
O279        O  0.55583913  0.80249401  0.30158186    -0.78900
O280        O  0.53375822  0.66830306  0.27778540    -0.80400
O281        O  0.46762669  0.71432773  0.17127506    -0.80200
O282        O  0.44571526  0.80216898  0.19328418    -0.78800
Zn283      Zn  0.46556784  0.77841325  0.28160366     1.55700
O284        O  0.46763810  0.67033010  0.21408794    -0.80200
Cd285      Cd  0.48577419  0.76104305  0.19855798     1.59700
Cd286      Cd  0.55039241  0.75964056  0.26325233     1.59600
O287        O  0.53373524  0.77765316  0.17220255    -0.80200
O288        O  0.49696307  0.74877213  0.25135078    -1.90700
Cd289      Cd  0.48600171  0.69571540  0.26167055     1.59900
O290        O  0.57756566  0.77560884  0.21538592    -0.80100
O291        O  0.44613757  0.68957475  0.30253467    -0.78800
C292        C  0.52977216  0.82184006  0.31522157     0.83700
C293        C  0.42582473  0.81658822  0.21838546     0.83400
O294        O  0.43584476  0.74825198  0.31685194    -0.77700
C295        C  0.46263874  0.68094222  0.18093040     0.84200
O296        O  0.49594516  0.81441762  0.30904342    -0.77800
C297        C  0.56742432  0.78115344  0.18213156     0.84300
C298        C  0.56703052  0.67833124  0.28398611     0.84700
O299        O  0.57691213  0.71198053  0.28123029    -0.80300
O300        O  0.19214189  0.74706288  0.56891756    -0.77800
C301        C  0.18468470  0.67587029  0.47403290     0.83300
O302        O  0.31232931  0.69367670  0.55574040    -0.78900
O303        O  0.28622054  0.71778854  0.42412145    -0.80400
O304        O  0.22421729  0.82638848  0.46727796    -0.80200
O305        O  0.20266673  0.80618517  0.55727859    -0.78800
Zn306      Zn  0.22326310  0.71675525  0.53635409     1.55700
O307        O  0.22168958  0.78220242  0.42488416    -0.80200
Cd308      Cd  0.24202123  0.79971700  0.51513995     1.59700
Cd309      Cd  0.30562123  0.73306779  0.51422922     1.59600
O310        O  0.29115938  0.82473571  0.53128870    -0.80200
O311        O  0.25253802  0.74637771  0.50442828    -1.90700
Cd312      Cd  0.23934050  0.73512102  0.45186488     1.59900
O313        O  0.33357283  0.78000609  0.52944997    -0.80100
O314        O  0.19912051  0.69418736  0.44776949    -0.78800
C315        C  0.28719217  0.67910807  0.57554564     0.83700
C316        C  0.18669845  0.78084930  0.57571606     0.83400
O317        O  0.19212268  0.68269213  0.50755540    -0.77700
C318        C  0.21818673  0.81581818  0.43423335     0.84200
O319        O  0.25320230  0.68622732  0.57057729    -0.77800
C320        C  0.32450215  0.81349549  0.53464081     0.84300
C321        C  0.31973653  0.71155639  0.43327464     0.84700
O322        O  0.33076164  0.71481730  0.46648866    -0.80300
O323        O  0.31111835  0.43488228  0.75411085    -0.77800
C324        C  0.31424366  0.53273129  0.82635366     0.83300
O325        O  0.19174212  0.44262348  0.80747055    -0.78900
O326        O  0.20741566  0.57543861  0.78517557    -0.80400
O327        O  0.27876021  0.53765531  0.67784686    -0.80200
O328        O  0.30038119  0.44782732  0.69516003    -0.78800
Zn329      Zn  0.28035210  0.46850911  0.78480623     1.55700
O330        O  0.27478511  0.58002288  0.72201833    -0.80200
Cd331      Cd  0.26036862  0.48919768  0.70214138     1.59700
Cd332      Cd  0.19584935  0.48377474  0.76708364     1.59600
O333        O  0.21204254  0.47367514  0.67484862    -0.80200
O334        O  0.24838000  0.49826401  0.75550434    -1.90700
Cd335      Cd  0.25677068  0.55147338  0.76817310     1.59900
O336        O  0.16983329  0.46727822  0.71926048    -0.80100
O337        O  0.29565315  0.55766040  0.81004818    -0.78800
C338        C  0.21837776  0.42880756  0.82589598     0.83700
C339        C  0.31649714  0.42884320  0.72002180     0.83400
O340        O  0.31149303  0.49898068  0.81774364    -0.77700
C341        C  0.28187872  0.57086708  0.68883209     0.84200
O342        O  0.25179505  0.43711924  0.81906923    -0.77800
C343        C  0.17909956  0.46624628  0.68538034     0.84300
C344        C  0.17454434  0.56331340  0.78963450     0.84700
O345        O  0.16651843  0.52949882  0.78476614    -0.80300
O346        O  0.49702363  0.44782048  0.92892560    -0.77800
C347        C  0.43704669  0.42596690  0.03046895     0.83300
O348        O  0.44476916  0.56144081  0.94913443    -0.78900
O349        O  0.46707210  0.53652374  0.07793952    -0.80400
O350        O  0.57811173  0.47232405  0.03301162    -0.80200
O351        O  0.55660032  0.45191534  0.94308315    -0.78800
Zn352      Zn  0.46844249  0.47264972  0.96826394     1.55700
O353        O  0.53543270  0.47559637  0.07730872    -0.80200
Cd354      Cd  0.55119608  0.49032385  0.98604803     1.59700
Cd355      Cd  0.48722777  0.55564334  0.98784208     1.59600
O356        O  0.57766070  0.53838542  0.97107046    -0.80200
O357        O  0.49855596  0.50246415  0.99847740    -1.90700
Cd358      Cd  0.48671812  0.49016095  0.05109938     1.59900
O359        O  0.53489072  0.58266355  0.97079257    -0.80100
O360        O  0.44943036  0.44614178  0.05640158    -0.78800
C361        C  0.42380632  0.53594597  0.93709682     0.83700
C362        C  0.53065689  0.43993070  0.92249079     0.83400
O363        O  0.44357424  0.43348527  0.99692381    -0.77700
C364        C  0.56860424  0.46964395  0.06675986     0.84200
O365        O  0.42994612  0.50231497  0.94422231    -0.77800
C366        C  0.56833490  0.57197220  0.96692358     0.84300
C367        C  0.46361399  0.57024544  0.06875167     0.84700
O368        O  0.47015143  0.58126325  0.03597975    -0.80300
C369        C  0.39457059  0.56760517  0.88312939    -0.20600
C370        C  0.39167204  0.54388283  0.91359934    -0.08600
C371        C  0.36001281  0.52179313  0.91756739     0.30200
C372        C  0.33366208  0.52058164  0.88978920    -0.20600
C373        C  0.33808752  0.54161585  0.85777450    -0.08600
C374        C  0.36772434  0.56650478  0.85513881     0.30200
F375        F  0.37254187  0.58696517  0.82422804    -0.19200
H376        H  0.41891976  0.58456163  0.87955644     0.18600
H377        H  0.31069313  0.50163073  0.89238210     0.18600
F378        F  0.35591470  0.49928430  0.94719615    -0.19100
C379        C  0.28921763  0.66381493  0.64177664    -0.20600
C380        C  0.29636167  0.65334050  0.60533745    -0.08600
C381        C  0.30388562  0.61638623  0.59744706     0.30200
C382        C  0.30163498  0.58986301  0.62535593    -0.20600
C383        C  0.29179907  0.59982757  0.66156261    -0.08600
C384        C  0.28736855  0.63749127  0.66982607     0.30200
F385        F  0.27852295  0.64885053  0.70432422    -0.19200
H386        H  0.28288496  0.69218215  0.64811354     0.18600
H387        H  0.30555208  0.56129134  0.61811502     0.18600
F388        F  0.31012992  0.60551886  0.56224323    -0.19100
C389        C  0.45320382  0.61553088  0.16210544    -0.20600
C390        C  0.45366821  0.65298426  0.15246648    -0.08600
C391        C  0.45033993  0.66255671  0.11496633     0.30200
C392        C  0.45085902  0.63524603  0.08786847    -0.20600
C393        C  0.45438365  0.59790774  0.09745688    -0.08600
C394        C  0.45351053  0.58824789  0.13506824     0.30200
F395        F  0.45554284  0.55259892  0.14600192    -0.19200
H396        H  0.45491266  0.60712833  0.19075456     0.18600
H397        H  0.45049122  0.64361269  0.05916062     0.18600
F398        F  0.44874485  0.69828466  0.10419209    -0.19100
C399        C  0.36478191  0.70447289  0.33941045    -0.20600
C400        C  0.40225355  0.70366984  0.34914128    -0.08600
C401        C  0.41230291  0.69977053  0.38620479     0.30200
C402        C  0.38499940  0.69929643  0.41350636    -0.20600
C403        C  0.34731961  0.70313335  0.40415967    -0.08600
C404        C  0.33739856  0.70393705  0.36655403     0.30200
F405        F  0.30149577  0.70681757  0.35587521    -0.19200
H406        H  0.35678300  0.70776088  0.31084129     0.18600
H407        H  0.39359202  0.69826470  0.44205708     0.18600
F408        F  0.44853313  0.69907580  0.39612549    -0.19100
C409        C  0.13966989  0.76838497  0.66645795    -0.20600
C410        C  0.10678674  0.78819953  0.66146562    -0.08600
C411        C  0.10305538  0.81110840  0.63034563     0.30200
C412        C  0.13082183  0.81153257  0.60317389    -0.20600
C413        C  0.16226426  0.78914487  0.60706043    -0.08600
C414        C  0.16715994  0.76887211  0.63967748     0.30200
F415        F  0.19768850  0.74759064  0.64457499    -0.19200
H416        H  0.14326706  0.75089384  0.69038569     0.18600
H417        H  0.12648503  0.82702478  0.57804420     0.18600
F418        F  0.07130877  0.83021414  0.62455759    -0.19100
C419        C  0.08112114  0.61008945  0.78704354    -0.20600
C420        C  0.09049112  0.64601162  0.79745512    -0.08600
C421        C  0.12604700  0.65307761  0.81129038     0.30200
C422        C  0.15291685  0.62526752  0.81114430    -0.20600
C423        C  0.14442178  0.58986246  0.79792635    -0.08600
C424        C  0.10754322  0.58202098  0.78786920     0.30200
F425        F  0.09763247  0.54813694  0.77569443    -0.19200
H426        H  0.05375064  0.60422097  0.77633316     0.18600
H427        H  0.18088966  0.63198136  0.81951259     0.18600
F428        F  0.13576699  0.68761672  0.82157529    -0.19100
C429        C  0.56426487  0.88350860  0.39236239    -0.20600
C430        C  0.53661012  0.91078945  0.39144489    -0.08600
C431        C  0.51189850  0.91169644  0.36152140     0.30200
C432        C  0.51230758  0.88393602  0.33535612    -0.20600
C433        C  0.53720127  0.85449670  0.33819838    -0.08600
C434        C  0.56466037  0.85537894  0.36570848     0.30200
F435        F  0.58968090  0.82770058  0.36864945    -0.19200
H436        H  0.58374668  0.88247505  0.41500189     0.18600
H437        H  0.49157674  0.88442464  0.31377816     0.18600
F438        F  0.48574518  0.93839455  0.35863283    -0.19100
C439        C  0.38997046  0.83332821  0.52846619    -0.20600
C440        C  0.35421357  0.84049779  0.54189408    -0.08600
C441        C  0.34674275  0.87498695  0.55790470     0.30200
C442        C  0.37379192  0.90261208  0.55766076    -0.20600
C443        C  0.40817976  0.89624590  0.54096071    -0.08600
C444        C  0.41657749  0.86105543  0.52756596     0.30200
F445        F  0.44986607  0.85415739  0.51162574    -0.19200
H446        H  0.39660332  0.80704316  0.51615637     0.18600
H447        H  0.36695454  0.92966878  0.56800048     0.18600
F448        F  0.31289122  0.88253524  0.57223276    -0.19100
C449        C  0.66184300  0.46017940  0.11383323    -0.20600
C450        C  0.65149657  0.45900351  0.15116235    -0.08600
C451        C  0.61361293  0.45611541  0.15995202     0.30200
C452        C  0.58690705  0.45736610  0.13210604    -0.20600
C453        C  0.59721889  0.46151807  0.09497417    -0.08600
C454        C  0.63517648  0.46156318  0.08601773     0.30200
F455        F  0.64679374  0.46526643  0.05064541    -0.19200
H456        H  0.69074174  0.46217229  0.10603302     0.18600
H457        H  0.55794634  0.45669589  0.13990475     0.18600
F458        F  0.60209360  0.45386220  0.19546849    -0.19100
C459        C  0.61440182  0.58544666  0.29434055    -0.20600
C460        C  0.65195180  0.59537285  0.29140806    -0.08600
C461        C  0.66111370  0.63305988  0.29216003     0.30200
C462        C  0.63327971  0.65979570  0.29240657    -0.20600
C463        C  0.59566685  0.64986921  0.29189992    -0.08600
C464        C  0.58652674  0.61223144  0.29463361     0.30200
F465        F  0.55069037  0.60103074  0.29575398    -0.19200
H466        H  0.60631299  0.55669460  0.29452971     0.18600
H467        H  0.64139496  0.68850307  0.29091861     0.18600
F468        F  0.69687808  0.64436048  0.29048794    -0.19100
C469        C  0.23471186  0.38025471  0.91532947    -0.20600
C470        C  0.21510504  0.34742279  0.91045224    -0.08600
C471        C  0.19147998  0.34365470  0.87985348     0.30200
C472        C  0.18995982  0.37161259  0.85302551    -0.20600
C473        C  0.21194597  0.40329058  0.85682852    -0.08600
C474        C  0.23304173  0.40798874  0.88900453     0.30200
F475        F  0.25366384  0.43880675  0.89406649    -0.19200
H476        H  0.25274197  0.38375987  0.93893058     0.18600
H477        H  0.17375414  0.36743458  0.82828624     0.18600
F478        F  0.17251163  0.31191726  0.87438573    -0.19100
C479        C  0.39211790  0.33434527  0.01499530    -0.20600
C480        C  0.36218618  0.33532346  0.03952923    -0.08600
C481        C  0.36028347  0.36380725  0.06569369     0.30200
C482        C  0.38649243  0.39250326  0.06487708    -0.20600
C483        C  0.41452400  0.39284517  0.03795380    -0.08600
C484        C  0.41797219  0.36259253  0.01414488     0.30200
F485        F  0.44541981  0.36119412  0.98861266    -0.19200
H486        H  0.39445366  0.31237341  0.99494631     0.18600
H487        H  0.38336111  0.41558146  0.08347823     0.18600
F488        F  0.33157875  0.36556239  0.08972215    -0.19100
C489        C  0.66197455  0.61848812  0.96624984    -0.20600
C490        C  0.65241167  0.65527594  0.95927048    -0.08600
C491        C  0.61551334  0.66361722  0.94985488     0.30200
C492        C  0.58847499  0.63598312  0.95025269    -0.20600
C493        C  0.59771043  0.59963542  0.95994128    -0.08600
C494        C  0.63511517  0.59102149  0.96683976     0.30200
F495        F  0.64563690  0.55661498  0.97695050    -0.19200
H496        H  0.69007548  0.61109940  0.97365354     0.18600
H497        H  0.56001706  0.64335811  0.94435803     0.18600
F498        F  0.60525623  0.69856741  0.94153809    -0.19100
C499        C  0.61440019  0.79338809  0.08937539    -0.20600
C500        C  0.65199338  0.79128991  0.09921633    -0.08600
C501        C  0.66131931  0.79188548  0.13695281     0.30200
C502        C  0.63357976  0.79092564  0.16380694    -0.20600
C503        C  0.59598363  0.78962536  0.15384230    -0.08600
C504        C  0.58666881  0.79271472  0.11623264     0.30200
F505        F  0.55080871  0.79315819  0.10504982    -0.19200
H506        H  0.60620559  0.79370493  0.06064169     0.18600
H507        H  0.64174936  0.78943400  0.19251476     0.18600
F508        F  0.69718112  0.79149420  0.14813364    -0.19100
C509        C  0.79019997  0.61523832  0.08645390    -0.20600
C510        C  0.78969519  0.65248512  0.09700326    -0.08600
C511        C  0.79206873  0.66084758  0.13484243     0.30200
C512        C  0.79183034  0.63275782  0.16120250    -0.20600
C513        C  0.78934825  0.59562947  0.15076702    -0.08600
C514        C  0.79016044  0.58709051  0.11286079     0.30200
F515        F  0.78916595  0.55167829  0.10109335    -0.19200
H516        H  0.78895989  0.60770075  0.05755133     0.18600
H517        H  0.79185172  0.64037513  0.19010995     0.18600
F518        F  0.79269448  0.69619751  0.14671674    -0.19100
C519        C  0.84296949  0.69964757  0.87282366    -0.20600
C520        C  0.85200271  0.71178043  0.90831495    -0.08600
C521        C  0.88864755  0.72140579  0.91647791     0.30200
C522        C  0.91555621  0.72075244  0.88893202    -0.20600
C523        C  0.90619838  0.71136203  0.85248577    -0.08600
C524        C  0.86974897  0.69962048  0.84492478     0.30200
F525        F  0.85945483  0.68984878  0.81034236    -0.19200
H526        H  0.81461845  0.69256598  0.86611668     0.18600
H527        H  0.94326266  0.72986941  0.89578210     0.18600
F528        F  0.89794816  0.73327408  0.95070060    -0.19100
C529        C  0.56436093  0.35976968  0.86431412    -0.20600
C530        C  0.53721992  0.35995610  0.83648731    -0.08600
C531        C  0.51284552  0.39001957  0.83409596     0.30200
C532        C  0.51334052  0.41742172  0.86074899    -0.20600
C533        C  0.53798468  0.41568651  0.89057546    -0.08600
C534        C  0.56476789  0.38752443  0.89135866     0.30200
F535        F  0.58909891  0.38504990  0.91973866    -0.19200
H536        H  0.58346652  0.33696584  0.86658982     0.18600
H537        H  0.49292349  0.43916301  0.85908837     0.18600
F538        F  0.48715101  0.39207947  0.80683854    -0.19100
C539        C  0.45926948  0.13767396  0.58295314    -0.20600
C540        C  0.46071524  0.10040825  0.59343770    -0.08600
C541        C  0.46043306  0.09180714  0.63130962     0.30200
C542        C  0.46116741  0.11975653  0.65762753    -0.20600
C543        C  0.46233213  0.15700461  0.64718112    -0.08600
C544        C  0.46003005  0.16571411  0.60939345     0.30200
F545        F  0.46004070  0.20119782  0.59775643    -0.19200
H546        H  0.45910003  0.14530242  0.55403939     0.18600
H547        H  0.46258505  0.11193447  0.68645363     0.18600
F548        F  0.46154172  0.05641788  0.64320713    -0.19100
C549        C  0.41841648  0.22487208  0.88508185    -0.20600
C550        C  0.41337544  0.20589823  0.85191238    -0.08600
C551        C  0.38288841  0.18203110  0.84820463     0.30200
C552        C  0.35579692  0.18050956  0.87603477    -0.20600
C553        C  0.35935511  0.20254640  0.90759489    -0.08600
C554        C  0.39188971  0.22307601  0.91274331     0.30200
F555        F  0.39677397  0.24354637  0.94364110    -0.19200
H556        H  0.44204243  0.24287343  0.88874436     0.18600
H557        H  0.33088347  0.16453276  0.87164917     0.18600
F558        F  0.37751426  0.16309288  0.81647514    -0.19100
C559        C  0.36238328  0.33679766  0.72745588    -0.20600
C560        C  0.39496643  0.34188579  0.70710039    -0.08600
C561        C  0.39882552  0.37390442  0.68551176     0.30200
C562        C  0.37169436  0.40171859  0.68718511    -0.20600
C563        C  0.34083298  0.39766012  0.71046696    -0.08600
C564        C  0.33571188  0.36429986  0.72927126     0.30200
F565        F  0.30572240  0.35913146  0.75122977    -0.19200
H566        H  0.35861853  0.31223220  0.74398140     0.18600
H567        H  0.37611583  0.42731278  0.67253915     0.18600
F568        F  0.43015333  0.37978209  0.66573117    -0.19100
C569        C  0.15988040  0.45487238  0.61991169    -0.20600
C570        C  0.15016203  0.45835927  0.65730167    -0.08600
C571        C  0.11223054  0.45822438  0.66682521     0.30200
C572        C  0.08507478  0.45738230  0.63938159    -0.20600
C573        C  0.09500504  0.45599637  0.60215489    -0.08600
C574        C  0.13256174  0.45376104  0.59255410     0.30200
F575        F  0.14286869  0.45340782  0.55660339    -0.19200
H576        H  0.18867751  0.45483968  0.61162208     0.18600
H577        H  0.05622021  0.45993339  0.64711479     0.18600
F578        F  0.10113330  0.46154461  0.70238907    -0.19100
C579        C  0.86236063  0.53637651  0.41464163    -0.20600
C580        C  0.90004142  0.53946317  0.40500668    -0.08600
C581        C  0.90915853  0.54483869  0.36754853     0.30200
C582        C  0.88144644  0.54466209  0.34052770    -0.20600
C583        C  0.84432766  0.53909061  0.35020685    -0.08600
C584        C  0.83480891  0.53584070  0.38751019     0.30200
F585        F  0.79904568  0.53020933  0.39752927    -0.19200
H586        H  0.85423928  0.53230433  0.44305134     0.18600
H587        H  0.88922712  0.54665675  0.31180038     0.18600
F588        F  0.94492267  0.54823723  0.35661928    -0.19100
C589        C  0.16191324  0.61462689  0.49066431    -0.20600
C590        C  0.15953278  0.64489765  0.46692795    -0.08600
C591        C  0.13106788  0.64623498  0.44047998     0.30200
C592        C  0.10363533  0.61876641  0.44013271    -0.20600
C593        C  0.10466266  0.59011125  0.46617925    -0.08600
C594        C  0.13493213  0.58758804  0.49042254     0.30200
F595        F  0.13751945  0.55982848  0.51538547    -0.19200
H596        H  0.18402356  0.61271112  0.51077911     0.18600
H597        H  0.08046917  0.62121320  0.42134227     0.18600
F598        F  0.12812527  0.67533760  0.41722624    -0.19100
C599        C  0.97801457  0.66389175  0.61476002    -0.20600
C600        C  0.95958736  0.65809496  0.64825256    -0.08600
C601        C  0.93826787  0.62604850  0.65299017     0.30200
C602        C  0.93772723  0.59904838  0.62532676    -0.20600
C603        C  0.95858562  0.60391595  0.59303762    -0.08600
C604        C  0.97755459  0.63713728  0.58739963     0.30200
F605        F  0.99759434  0.64272345  0.55623091    -0.19200
H606        H  0.99448993  0.68840327  0.61059072     0.18600
H607        H  0.92352333  0.57333713  0.63031119     0.18600
F608        F  0.92109409  0.61925526  0.68553305    -0.19100
C609        C  0.35798233  0.03992068  0.41576293    -0.20600
C610        C  0.39518661  0.04278970  0.40529836    -0.08600
C611        C  0.40405350  0.04796388  0.36807049     0.30200
C612        C  0.37613418  0.04739352  0.34134212    -0.20600
C613        C  0.33887452  0.04170132  0.35134051    -0.08600
C614        C  0.32990408  0.03992188  0.38916953     0.30200
F615        F  0.29438407  0.03549796  0.40052099    -0.19200
H616        H  0.35082227  0.03571233  0.44442757     0.18600
H617        H  0.38402261  0.04924223  0.31263170     0.18600
F618        F  0.43996300  0.05035959  0.35729880    -0.19100
C619        C  0.28005599  0.10586851  0.08646331    -0.20600
C620        C  0.29448243  0.14096892  0.09399259    -0.08600
C621        C  0.30935059  0.14790995  0.12928429     0.30200
C622        C  0.30712314  0.12107950  0.15700137    -0.20600
C623        C  0.28963731  0.08741094  0.14997316    -0.08600
C624        C  0.27719514  0.07953721  0.11425875     0.30200
F625        F  0.26046634  0.04694820  0.10677705    -0.19200
H626        H  0.26850795  0.09953995  0.05968119     0.18600
H627        H  0.31678441  0.12749484  0.18449377     0.18600
F628        F  0.32440810  0.18108270  0.13754395    -0.19100
C629        C  0.20603318  0.88104177  0.41496683    -0.20600
C630        C  0.20917250  0.84370961  0.40543069    -0.08600
C631        C  0.20739687  0.83414174  0.36779511     0.30200
C632        C  0.20585229  0.86147437  0.34065399    -0.20600
C633        C  0.20584764  0.89894710  0.35014579    -0.08600
C634        C  0.20425504  0.90837009  0.38781360     0.30200
F635        F  0.20287904  0.94404003  0.39868281    -0.19200
H636        H  0.20660543  0.88938615  0.44361400     0.18600
H637        H  0.20652450  0.85315470  0.31200105     0.18600
F638        F  0.20919567  0.79851021  0.35685739    -0.19100
C639        C  0.33287138  0.86207916  0.21113891    -0.20600
C640        C  0.34278149  0.89953602  0.21175207    -0.08600
C641        C  0.38061227  0.90887983  0.20847491     0.30200
C642        C  0.40765183  0.88131223  0.20727897    -0.20600
C643        C  0.39758331  0.84417289  0.20928153    -0.08600
C644        C  0.36000548  0.83465733  0.21028496     0.30200
F645        F  0.34967696  0.79885141  0.21275811    -0.19200
H646        H  0.30416342  0.85384008  0.21350839     0.18600
H647        H  0.43662562  0.88901820  0.20712883     0.18600
F648        F  0.39180755  0.94451250  0.20847543    -0.19100
C649        C  0.83711138  0.86395541  0.70546955    -0.20600
C650        C  0.84757484  0.90121346  0.70730414    -0.08600
C651        C  0.88558602  0.90987556  0.70604831     0.30200
C652        C  0.91214945  0.88190123  0.70604646    -0.20600
C653        C  0.90169260  0.84464199  0.70747658    -0.08600
C654        C  0.86372247  0.83595042  0.70560033     0.30200
F655        F  0.85205714  0.80046967  0.70570217    -0.19200
H656        H  0.80813364  0.85624945  0.70578840     0.18600
H657        H  0.94110139  0.88966206  0.70700483     0.18600
F658        F  0.89738905  0.94530062  0.70683897    -0.19100
C659        C  0.63677305  0.16411817  0.78814295    -0.20600
C660        C  0.59891056  0.15486368  0.78770024    -0.08600
C661        C  0.58893150  0.11733741  0.78964168     0.30200
C662        C  0.61617446  0.09001974  0.78928698    -0.20600
C663        C  0.65365013  0.09947940  0.78707077    -0.08600
C664        C  0.66392652  0.13665372  0.78751221     0.30200
F665        F  0.70013429  0.14635543  0.78511425    -0.19200
H666        H  0.64544245  0.19255675  0.78670812     0.18600
H667        H  0.60792069  0.06142686  0.78854344     0.18600
F668        F  0.55288923  0.10676280  0.78976932    -0.19100
C669        C  0.62900943  0.94739691  0.58875778    -0.20600
C670        C  0.59246789  0.95775272  0.59744142    -0.08600
C671        C  0.58352156  0.96489864  0.63464223     0.30200
C672        C  0.61113771  0.96487325  0.66154399    -0.20600
C673        C  0.64784534  0.95685275  0.65228827    -0.08600
C674        C  0.65650656  0.94682806  0.61600801     0.30200
F675        F  0.69204423  0.93949092  0.60637411    -0.19200
H676        H  0.63676265  0.94157982  0.56055731     0.18600
H677        H  0.60419887  0.97303420  0.68938377     0.18600
F678        F  0.54872483  0.97464883  0.64484973    -0.19100
C679        C  0.71471098  0.91237866  0.88197786    -0.20600
C680        C  0.70870262  0.90268270  0.84492819    -0.08600
C681        C  0.69956254  0.86580531  0.83673733     0.30200
C682        C  0.69905229  0.83911943  0.86477684    -0.20600
C683        C  0.70754160  0.84880537  0.90120263    -0.08600
C684        C  0.71453769  0.88572738  0.90970454     0.30200
F685        F  0.72359539  0.89562298  0.94461198    -0.19200
H686        H  0.72183992  0.94030992  0.88938088     0.18600
H687        H  0.69412201  0.81063519  0.85773710     0.18600
F688        F  0.69272107  0.85514523  0.80157233    -0.19100
C689        C  0.58690752  0.13309843  0.46303828    -0.20600
C690        C  0.59706692  0.09601748  0.45830225    -0.08600
C691        C  0.63463359  0.08757020  0.45182053     0.30200
C692        C  0.66137641  0.11552527  0.45224071    -0.20600
C693        C  0.65111087  0.15198728  0.45951457    -0.08600
C694        C  0.61366314  0.16070503  0.46420456     0.30200
F695        F  0.60317001  0.19574098  0.47175568    -0.19200
H696        H  0.55837826  0.14065910  0.46819136     0.18600
H697        H  0.69032511  0.10841342  0.44906725     0.18600
F698        F  0.64579996  0.05230503  0.44672531    -0.19100
C699        C  0.88040848  0.34032317  0.54984277    -0.20600
C700        C  0.84387234  0.34994030  0.54033317    -0.08600
C701        C  0.83536925  0.38738072  0.53489771     0.30200
C702        C  0.86328968  0.41384456  0.53608908    -0.20600
C703        C  0.90034310  0.40384169  0.54244723    -0.08600
C704        C  0.90842902  0.36690905  0.55088825     0.30200
F705        F  0.94354336  0.35615612  0.55873473    -0.19200
H706        H  0.88775735  0.31185292  0.55483229     0.18600
H707        H  0.85602821  0.44206215  0.52968542     0.18600
F708        F  0.80061237  0.39843097  0.52592470    -0.19100
C709        C  0.70939248  0.33182013  0.35985270    -0.20600
C710        C  0.70493370  0.34199566  0.39702368    -0.08600
C711        C  0.69801084  0.37927603  0.40533042     0.30200
C712        C  0.69873792  0.40585322  0.37745038    -0.20600
C713        C  0.70645269  0.39582633  0.34104234    -0.08600
C714        C  0.71056260  0.35855730  0.33212054     0.30200
F715        F  0.71777048  0.34825725  0.29691704    -0.19200
H716        H  0.71456467  0.30348852  0.35244024     0.18600
H717        H  0.69574757  0.43454867  0.38467073     0.18600
F718        F  0.69278679  0.39051927  0.44058251    -0.19100
C719        C  0.62148070  0.30507820  0.59077590    -0.20600
C720        C  0.65749168  0.29396582  0.59972680    -0.08600
C721        C  0.66650564  0.28626938  0.63649255     0.30200
C722        C  0.63916382  0.28738409  0.66363912    -0.20600
C723        C  0.60214319  0.29522177  0.65435536    -0.08600
C724        C  0.59382981  0.30551028  0.61777164     0.30200
F725        F  0.55868532  0.31386816  0.60751901    -0.19200
H726        H  0.61415845  0.31077206  0.56240889     0.18600
H727        H  0.64659601  0.27953448  0.69145128     0.18600
F728        F  0.70132462  0.27559836  0.64572648    -0.19100
C729        C  0.77588287  0.11207077  0.58055387    -0.20600
C730        C  0.79329953  0.14576876  0.58765477    -0.08600
C731        C  0.81291367  0.15039881  0.62080230     0.30200
C732        C  0.81247314  0.12243170  0.64760507    -0.20600
C733        C  0.79230594  0.08994382  0.64145950    -0.08600
C734        C  0.77536189  0.08439995  0.60711611     0.30200
F735        F  0.75626814  0.05300291  0.60016168    -0.19200
H736        H  0.76062917  0.10805446  0.55516456     0.18600
H737        H  0.82528533  0.12732322  0.67412496     0.18600
F738        F  0.82917015  0.18309204  0.62872604    -0.19100
C739        C  0.08492193  0.11783587  0.26395519    -0.20600
C740        C  0.08803428  0.14680740  0.28920866    -0.08600
C741        C  0.11530402  0.14487359  0.31689620     0.30200
C742        C  0.14145525  0.11613057  0.31644911    -0.20600
C743        C  0.14031615  0.08943560  0.28845028    -0.08600
C744        C  0.11066475  0.08958572  0.26343225     0.30200
F745        F  0.10761949  0.06330992  0.23703977    -0.19200
H746        H  0.06353197  0.11811737  0.24299814     0.18600
H747        H  0.16390927  0.11618496  0.33623160     0.18600
F748        F  0.11853075  0.17204125  0.34227240    -0.19100
C749        C  0.84779553  0.37410593  0.19068937    -0.20600
C750        C  0.85474464  0.40933948  0.20462455    -0.08600
C751        C  0.89087684  0.41899979  0.21492164     0.30200
C752        C  0.91913310  0.39283652  0.21396452    -0.20600
C753        C  0.91157358  0.35635586  0.20358355    -0.08600
C754        C  0.87594964  0.34761179  0.19030180     0.30200
F755        F  0.86777901  0.31303632  0.17886426    -0.19200
H756        H  0.81998561  0.36632359  0.18268583     0.18600
H757        H  0.94625342  0.40050704  0.22411592     0.18600
F758        F  0.89828246  0.45315974  0.22805922    -0.19100
C759        C  0.13256337  0.30261896  0.09555491    -0.20600
C760        C  0.16666856  0.28562837  0.10350407    -0.08600
C761        C  0.17395187  0.27433667  0.13996155     0.30200
C762        C  0.14684448  0.27797067  0.16705360    -0.20600
C763        C  0.11223458  0.29317584  0.15861337    -0.08600
C764        C  0.10553388  0.30651918  0.12294679     0.30200
F765        F  0.07176516  0.32012383  0.11379119    -0.19200
H766        H  0.12621724  0.31148401  0.06776664     0.18600
H767        H  0.15204163  0.26676361  0.19424478     0.18600
F768        F  0.20596577  0.25690866  0.14891394    -0.19100
C769        C  0.04817323  0.34261561  0.38324541    -0.20600
C770        C  0.04637262  0.35347101  0.34609022    -0.08600
C771        C  0.04597226  0.39136395  0.33782595     0.30200
C772        C  0.04425283  0.41730705  0.36616334    -0.20600
C773        C  0.04280500  0.40623641  0.40328304    -0.08600
C774        C  0.04634688  0.36852184  0.41155040     0.30200
F775        F  0.04600864  0.35626225  0.44688216    -0.19200
H776        H  0.04894050  0.31371440  0.39064526     0.18600
H777        H  0.04210635  0.44615077  0.35880073     0.18600
F778        F  0.04500681  0.40350149  0.30245930    -0.19100
C779        C  0.88696980  0.21911761  0.41048300    -0.20600
C780        C  0.84942926  0.21826150  0.40032762    -0.08600
C781        C  0.84045607  0.21715501  0.36251165     0.30200
C782        C  0.86838415  0.21864976  0.33586836    -0.20600
C783        C  0.90583674  0.22143707  0.34606587    -0.08600
C784        C  0.91486207  0.22075606  0.38387150     0.30200
F785        F  0.95050571  0.22325932  0.39544905    -0.19200
H786        H  0.89490746  0.21994104  0.43927934     0.18600
H787        H  0.86043246  0.21896812  0.30706418     0.18600
F788        F  0.80470371  0.21632221  0.35100489    -0.19100
C789        C  0.85732805  0.91920544  0.01906854    -0.20600
C790        C  0.88900807  0.91731825  0.04126553    -0.08600
C791        C  0.89235742  0.88827056  0.06680288     0.30200
C792        C  0.86602686  0.85961163  0.06705875    -0.20600
C793        C  0.83627777  0.86007487  0.04201974    -0.08600
C794        C  0.83120594  0.89115898  0.01949871     0.30200
F795        F  0.80194091  0.89338976  0.99608303    -0.19200
H796        H  0.85379039  0.94164201  0.99971035     0.18600
H797        H  0.87034568  0.83600039  0.08474404     0.18600
F798        F  0.92249232  0.88592464  0.08900361    -0.19100
C799        C  0.16292747  0.11387100  0.95334054    -0.20600
C800        C  0.15450678  0.15153316  0.95626744    -0.08600
C801        C  0.11704176  0.16233279  0.95471826     0.30200
C802        C  0.08896278  0.13586373  0.95413838    -0.20600
C803        C  0.09739927  0.09808344  0.95502821    -0.08600
C804        C  0.13481074  0.08739312  0.95267059     0.30200
F805        F  0.14449133  0.05134956  0.95175136    -0.19200
H806        H  0.19142960  0.10459804  0.95365232     0.18600
H807        H  0.06047582  0.14514838  0.95512714     0.18600
F808        F  0.10724239  0.19835867  0.95580049    -0.19100
C809        C  0.02457073  0.91691399  0.86224875    -0.20600
C810        C  0.03135569  0.90826534  0.89926080    -0.08600
C811        C  0.04189275  0.87235797  0.90868722     0.30200
C812        C  0.04387768  0.84504405  0.88153725    -0.20600
C813        C  0.03557177  0.85315373  0.84445962    -0.08600
C814        C  0.02707629  0.88988680  0.83496049     0.30200
F815        F  0.01897044  0.89946243  0.79970686    -0.19200
H816        H  0.01613781  0.94448394  0.85462601     0.18600
H817        H  0.05039697  0.81718222  0.88985031     0.18600
F818        F  0.04781819  0.86317948  0.94445339    -0.19100
C819        C  0.07982828  0.96389526  0.13527155    -0.20600
C820        C  0.08949896  0.96095821  0.09779061    -0.08600
C821        C  0.12658972  0.95217961  0.08897972     0.30200
C822        C  0.15346224  0.94930920  0.11684258    -0.20600
C823        C  0.14396301  0.95482858  0.15388582    -0.08600
C824        C  0.10673904  0.96117835  0.16294592     0.30200
F825        F  0.09683577  0.96729341  0.19848298    -0.19200
H826        H  0.05171073  0.97045042  0.14322928     0.18600
H827        H  0.18215374  0.94514122  0.10926274     0.18600
F828        F  0.13747736  0.94834435  0.05341512    -0.19100
C829        C  0.88207970  0.05099296  0.83387382    -0.20600
C830        C  0.84434373  0.04761192  0.84306928    -0.08600
C831        C  0.83402191  0.05044778  0.88048730     0.30200
C832        C  0.86109861  0.05266438  0.90792531    -0.20600
C833        C  0.89870388  0.05278575  0.89866545    -0.08600
C834        C  0.90906854  0.05345041  0.86144848     0.30200
F835        F  0.94539547  0.05320624  0.85188080    -0.19200
H836        H  0.89099206  0.04933793  0.80546343     0.18600
H837        H  0.85277277  0.05172621  0.93655977     0.18600
F838        F  0.79801312  0.04841684  0.89097544    -0.19100
C839        C  0.97620905  0.17338869  0.10994604    -0.20600
C840        C  0.96230206  0.16640541  0.14527703    -0.08600
C841        C  0.94550046  0.13238016  0.15269065     0.30200
C842        C  0.94492425  0.10485464  0.12561959    -0.20600
C843        C  0.96047345  0.11120878  0.09061748    -0.08600
C844        C  0.97493534  0.14639739  0.08268558     0.30200
F845        F  0.99059199  0.15400638  0.04953889    -0.19200
H846        H  0.98961513  0.19933711  0.10394779     0.18600
H847        H  0.93362376  0.07815453  0.13247433     0.18600
F848        F  0.93248121  0.12474212  0.18691980    -0.19100
loop_ 
_geom_bond_atom_site_label_1 
_geom_bond_atom_site_label_2 
_geom_bond_distance 
_geom_bond_site_symmetry_2 
_ccdc_geom_bond_type 
O1           C17   1.270       .  A
O1           Zn7   1.996   1_545  S
C2           O18   1.272   1_455  A
C2           O15   1.277       .  A
C2          C810   1.473       .  S
O3           C16   1.278       .  A
O3          Cd10   2.109       .  S
O4           C22   1.278       .  A
O4          Cd13   2.091   1_554  S
O5           C19   1.275       .  A
O5           Cd9   2.063   1_455  S
O6           C17   1.273       .  A
O6           Cd9   2.089       .  S
Zn7          O18   2.009       .  S
Zn7          O20   1.994       .  S
Zn7          O12   1.924   1_565  S
O8           C19   1.278       .  A
O8          Cd13   2.087   1_545  S
Cd9          O11   2.063   1_556  S
Cd9          O12   2.011       .  S
Cd10         O14   2.097   1_565  S
Cd10         O23   2.090   1_655  S
Cd10         O12   2.023   1_564  S
O11          C21   1.275       .  A
O12         Cd13   2.014   1_645  S
Cd13         O15   2.096       .  S
O14          C21   1.279       .  A
C16          O20   1.273   1_554  A
C16         C790   1.480       .  S
C17         C833   1.467       .  S
C19         C803   1.489       .  S
C21         C843   1.487       .  S
C22          O23   1.279       .  A
C22         C820   1.497       .  S
O24          C40   1.269       .  A
O24         Zn30   1.975       .  S
C25          O41   1.270       .  A
C25          O38   1.275       .  A
C25         C740   1.477       .  S
O26          C39   1.276       .  A
O26         Cd33   2.095       .  S
O27          C45   1.275       .  A
O27         Cd36   2.069   1_655  S
O28          C42   1.277       .  A
O28         Cd32   2.075       .  S
O29          C40   1.276       .  A
O29         Cd32   2.095       .  S
Zn30         O41   1.970       .  S
Zn30         O43   1.989       .  S
Zn30         O35   1.898       .  S
O31          C42   1.277       .  A
O31         Cd36   2.067       .  S
Cd32         O34   2.069   1_455  S
Cd32         O35   2.006       .  S
Cd33         O37   2.077       .  S
Cd33         O46   2.077       .  S
Cd33         O35   2.006   1_655  S
O34          C44   1.276       .  A
O35         Cd36   2.011       .  S
Cd36         O38   2.100       .  S
O37          C44   1.277       .  A
C39          O43   1.270   1_655  A
C39         C840   1.472       .  S
C40         C763   1.467       .  S
C42         C770   1.486       .  S
C44         C753   1.482       .  S
C45          O46   1.277       .  A
C45         C783   1.488       .  S
O47          C63   1.271       .  A
O47         Zn53   1.989       .  S
C48          O64   1.272       .  A
C48          O61   1.274       .  A
C48         C720   1.466       .  S
O49          C62   1.275       .  A
O49         Cd56   2.085       .  S
O50          C68   1.275       .  A
O50         Cd59   2.069       .  S
O51          C65   1.276       .  A
O51         Cd55   2.072       .  S
O52          C63   1.276       .  A
O52         Cd55   2.098       .  S
Zn53         O64   1.998       .  S
Zn53         O66   2.001       .  S
Zn53         O58   1.913       .  S
O54          C65   1.276       .  A
O54         Cd59   2.069       .  S
Cd55         O57   2.076       .  S
Cd55         O58   2.009       .  S
Cd56         O60   2.066       .  S
Cd56         O69   2.076       .  S
Cd56         O58   2.005       .  S
O57          C67   1.277       .  A
O58         Cd59   2.000       .  S
Cd59         O61   2.081       .  S
O60          C67   1.275       .  A
C62          O66   1.272       .  A
C62         C693   1.467       .  S
C63         C730   1.473       .  S
C65         C700   1.486       .  S
C67         C780   1.487       .  S
C68          O69   1.276       .  A
C68         C710   1.487       .  S
O70          C86   1.272       .  A
O70         Zn76   1.998       .  S
C71          O87   1.271   1_565  A
C71          O84   1.275       .  A
C71         C673   1.467       .  S
O72          C85   1.274       .  A
O72         Cd79   2.084       .  S
O73          C91   1.277       .  A
O73         Cd82   2.089       .  S
O74          C88   1.278       .  A
O74         Cd78   2.084   1_565  S
O75          C86   1.275       .  A
O75         Cd78   2.096       .  S
Zn76         O87   1.996       .  S
Zn76         O89   2.005       .  S
Zn76         O81   1.922       .  S
O77          C88   1.277       .  A
O77         Cd82   2.074       .  S
Cd78         O80   2.080       .  S
Cd78         O81   2.015       .  S
Cd79         O83   2.069       .  S
Cd79         O92   2.074   1_545  S
Cd79         O81   2.003       .  S
O80          C90   1.277       .  A
O81         Cd82   2.015   1_545  S
Cd82         O84   2.090       .  S
O83          C90   1.275       .  A
C85          O89   1.272       .  A
C85         C663   1.467       .  S
C86         C733   1.474       .  S
C88         C650   1.490       .  S
C90         C830   1.489       .  S
C91          O92   1.277       .  A
C91         C680   1.491       .  S
O93         C109   1.269       .  A
O93         Zn99   1.994   1_565  S
C94         O110   1.272       .  A
C94         O107   1.275       .  A
C94         C743   1.475       .  S
O95         C108   1.274       .  A
O95        Cd102   2.085       .  S
O96         C114   1.276       .  A
O96        Cd105   2.080       .  S
O97         C111   1.279       .  A
O97        Cd101   2.085       .  S
O98         C109   1.278       .  A
O98        Cd101   2.116       .  S
Zn99        O110   1.982       .  S
Zn99        O112   1.995       .  S
Zn99        O104   1.915   1_545  S
O100        C111   1.276       .  A
O100       Cd105   2.074   1_565  S
Cd101       O103   2.081       .  S
Cd101       O104   2.015       .  S
Cd102       O106   2.074   1_545  S
Cd102       O115   2.076       .  S
Cd102       O104   2.011   1_545  S
O103        C113   1.278       .  A
O104       Cd105   2.017   1_565  S
Cd105       O107   2.094       .  S
O106        C113   1.276       .  A
C108        O112   1.272       .  A
C108        C623   1.468       .  S
C109        C823   1.477       .  S
C111        C633   1.491       .  S
C113        C640   1.489       .  S
C114        O115   1.276       .  A
C114        C613   1.490       .  S
O116        C132   1.269       .  A
O116       Zn122   1.990       .  S
C117        O133   1.268       .  A
C117        O130   1.275       .  A
C117        C593   1.473       .  S
O118        C131   1.275       .  A
O118       Cd125   2.094       .  S
O119        C137   1.277       .  A
O119       Cd128   2.082   1_655  S
O120        C134   1.276       .  A
O120       Cd124   2.072       .  S
O121        C132   1.275       .  A
O121       Cd124   2.098       .  S
Zn122       O133   1.959       .  S
Zn122       O135   1.977       .  S
Zn122       O127   1.902   1_455  S
O123        C134   1.277       .  A
O123       Cd128   2.072       .  S
Cd124       O126   2.083   1_455  S
Cd124       O127   2.009   1_455  S
Cd125       O129   2.059       .  S
Cd125       O138   2.078       .  S
Cd125       O127   2.003       .  S
O126        C136   1.278       .  A
O127       Cd128   2.017   1_655  S
Cd128       O130   2.098       .  S
O129        C136   1.275       .  A
C131        O135   1.269   1_655  A
C131        C603   1.470       .  S
C132        C573   1.469       .  S
C134        C773   1.486       .  S
C136        C703   1.484       .  S
C137        O138   1.277       .  A
C137        C580   1.492       .  S
O139        C155   1.272       .  A
O139       Zn145   1.987       .  S
C140        O156   1.272       .  A
C140        O153   1.274       .  A
C140        C550   1.475       .  S
O141        C154   1.277       .  A
O141       Cd148   2.104       .  S
O142        C160   1.275       .  A
O142       Cd151   2.065       .  S
O143        C157   1.278       .  A
O143       Cd147   2.091       .  S
O144        C155   1.277       .  A
O144       Cd147   2.106       .  S
Zn145       O156   1.995       .  S
Zn145       O158   1.986       .  S
Zn145       O150   1.898       .  S
O146        C157   1.276       .  A
O146       Cd151   2.063       .  S
Cd147       O149   2.075       .  S
Cd147       O150   2.015       .  S
Cd148       O152   2.070       .  S
Cd148       O161   2.084       .  S
Cd148       O150   2.014       .  S
O149        C159   1.277       .  A
O150       Cd151   2.002       .  S
Cd151       O153   2.091       .  S
O152        C159   1.277       .  A
C154        O158   1.271       .  A
C154        C530   1.481       .  S
C155        C560   1.479       .  S
C157        C543   1.490       .  S
C159        C723   1.485       .  S
C160        O161   1.278       .  A
C160        C660   1.488       .  S
O162        C178   1.271       .  A
O162       Zn168   1.995       .  S
C163        O179   1.271       .  A
C163        O176   1.276       .  A
C163        C683   1.471       .  S
O164        C177   1.277       .  A
O164       Cd171   2.111       .  S
O165        C183   1.278       .  A
O165       Cd174   2.080   1_554  S
O166        C180   1.275       .  A
O166       Cd170   2.059       .  S
O167        C178   1.274       .  A
O167       Cd170   2.083       .  S
Zn168       O179   1.999       .  S
Zn168       O181   1.977   1_556  S
Zn168       O173   1.911   1_556  S
O169        C180   1.276       .  A
O169       Cd174   2.077       .  S
Cd170       O172   2.077   1_556  S
Cd170       O173   2.003   1_556  S
Cd171       O175   2.087       .  S
Cd171       O184   2.073       .  S
Cd171       O173   2.017       .  S
O172        C182   1.277       .  A
O173       Cd174   2.015   1_554  S
Cd174       O176   2.098       .  S
O175        C182   1.278       .  A
C177        O181   1.270       .  A
C177        C793   1.480       .  S
C178        C520   1.466       .  S
C180        C490   1.482       .  S
C182        C510   1.493       .  S
C183        O184   1.276       .  A
C183        C500   1.488       .  S
O185        C201   1.270       .  A
O185       Zn191   1.977       .  S
C186        O202   1.272       .  A
C186        O199   1.275       .  A
C186        C470   1.472       .  S
O187        C200   1.275       .  A
O187       Cd194   2.103       .  S
O188        C206   1.277       .  A
O188       Cd197   2.080   1_554  S
O189        C203   1.278       .  A
O189       Cd193   2.081       .  S
O190        C201   1.276       .  A
O190       Cd193   2.101       .  S
Zn191       O202   1.992       .  S
Zn191       O204   1.977       .  S
Zn191       O196   1.903   1_556  S
O192        C203   1.276       .  A
O192       Cd197   2.074       .  S
Cd193       O195   2.073   1_556  S
Cd193       O196   2.013   1_556  S
Cd194       O198   2.077       .  S
Cd194       O207   2.064       .  S
Cd194       O196   2.018       .  S
O195        C205   1.277       .  A
O196       Cd197   2.012   1_554  S
Cd197       O199   2.091       .  S
O198        C205   1.276       .  A
C200        O204   1.269   1_554  A
C200        C480   1.477       .  S
C201        C553   1.473       .  S
C203        C800   1.489       .  S
C205        C620   1.484       .  S
C206        O207   1.275       .  A
C206        C760   1.482       .  S
O208        C224   1.273       .  A
O208       Zn214   2.010       .  S
C209        O225   1.272       .  A
C209        O222   1.274       .  A
C209        C750   1.468       .  S
O210        C223   1.276       .  A
O210       Cd217   2.095       .  S
O211        C229   1.275       .  A
O211       Cd220   2.073       .  S
O212        C226   1.276       .  A
O212       Cd216   2.074       .  S
O213        C224   1.275       .  A
O213       Cd216   2.082       .  S
Zn214       O225   2.004       .  S
Zn214       O227   2.006       .  S
Zn214       O219   1.924       .  S
O215        C226   1.275       .  A
O215       Cd220   2.063       .  S
Cd216       O218   2.077       .  S
Cd216       O219   2.009       .  S
Cd217       O221   2.081       .  S
Cd217       O230   2.081       .  S
Cd217       O219   2.006       .  S
O218        C228   1.277       .  A
O219       Cd220   2.009       .  S
Cd220       O222   2.082       .  S
O221        C228   1.277       .  A
C223        O227   1.272       .  A
C223        C583   1.471       .  S
C224        C713   1.467       .  S
C226        C450   1.485       .  S
C228        C460   1.491       .  S
C229        O230   1.278       .  A
C229        C513   1.491       .  S
O231        C247   1.271       .  A
O231       Zn237   1.990       .  S
C232        O248   1.272   1_545  A
C232        O245   1.275       .  A
C232        C610   1.469       .  S
O233        C246   1.277       .  A
O233       Cd240   2.104       .  S
O234        C252   1.275       .  A
O234       Cd243   2.058       .  S
O235        C249   1.275       .  A
O235       Cd239   2.070   1_545  S
O236        C247   1.274       .  A
O236       Cd239   2.086       .  S
Zn237       O248   2.004       .  S
Zn237       O250   1.979       .  S
Zn237       O242   1.906       .  S
O238        C249   1.276       .  A
O238       Cd243   2.077       .  S
Cd239       O241   2.059       .  S
Cd239       O242   1.999       .  S
Cd240       O244   2.088       .  S
Cd240       O253   2.086   1_565  S
Cd240       O242   2.022       .  S
O241        C251   1.274       .  A
O242       Cd243   2.001   1_565  S
Cd243       O245   2.086       .  S
O244        C251   1.279       .  A
C246        O250   1.271       .  A
C246        C430   1.479       .  S
C247        C443   1.467       .  S
C249        C540   1.489       .  S
C251        C670   1.487       .  S
C252        O253   1.278       .  A
C252        C690   1.485       .  S
O254        C270   1.271   1_455  A
O254       Zn260   1.989       .  S
C255        O271   1.273       .  A
C255        O268   1.275       .  A
C255        C410   1.475       .  S
O256        C269   1.276       .  A
O256       Cd263   2.094       .  S
O257        C275   1.276       .  A
O257       Cd266   2.076       .  S
O258        C272   1.278       .  A
O258       Cd262   2.086       .  S
O259        C270   1.276       .  A
O259       Cd262   2.098       .  S
Zn260       O271   1.997       .  S
Zn260       O273   2.002       .  S
Zn260       O265   1.908       .  S
O261        C272   1.276       .  A
O261       Cd266   2.066   1_655  S
Cd262       O264   2.079       .  S
Cd262       O265   2.013   1_655  S
Cd263       O267   2.064   1_455  S
Cd263       O276   2.080       .  S
Cd263       O265   2.005       .  S
O264        C274   1.277       .  A
O265       Cd266   2.004       .  S
Cd266       O268   2.091       .  S
O267        C274   1.276       .  A
C269        O273   1.272       .  A
C269        C420   1.472       .  S
C270        C600   1.473       .  S
C272        C653   1.489       .  S
C274        C523   1.484       .  S
C275        O276   1.277       .  A
C275        C813   1.491       .  S
O277        C293   1.270       .  A
O277       Zn283   1.996       .  S
C278        O294   1.271       .  A
C278        O291   1.273       .  A
C278        C400   1.463       .  S
O279        C292   1.276       .  A
O279       Cd286   2.100       .  S
O280        C298   1.276       .  A
O280       Cd289   2.076       .  S
O281        C295   1.276       .  A
O281       Cd285   2.074       .  S
O282        C293   1.274       .  A
O282       Cd285   2.090       .  S
Zn283       O294   1.998       .  S
Zn283       O296   1.978       .  S
Zn283       O288   1.913       .  S
O284        C295   1.276       .  A
O284       Cd289   2.069       .  S
Cd285       O287   2.069       .  S
Cd285       O288   2.008       .  S
Cd286       O290   2.078       .  S
Cd286       O299   2.084       .  S
Cd286       O288   2.017       .  S
O287        C297   1.275       .  A
O288       Cd289   2.005       .  S
Cd289       O291   2.080       .  S
O290        C297   1.277       .  A
C292        O296   1.271       .  A
C292        C433   1.477       .  S
C293        C643   1.468       .  S
C295        C390   1.486       .  S
C297        C503   1.488       .  S
C298        O299   1.279       .  A
C298        C463   1.491       .  S
O300        C316   1.269       .  A
O300       Zn306   1.970       .  S
C301        O317   1.271       .  A
C301        O314   1.274       .  A
C301        C590   1.470       .  S
O302        C315   1.273       .  A
O302       Cd309   2.092       .  S
O303        C321   1.276       .  A
O303       Cd312   2.069       .  S
O304        C318   1.279       .  A
O304       Cd308   2.090       .  S
O305        C316   1.276       .  A
O305       Cd308   2.102       .  S
Zn306       O317   1.974       .  S
Zn306       O319   1.985       .  S
Zn306       O311   1.902       .  S
O307        C318   1.276       .  A
O307       Cd312   2.072       .  S
Cd308       O310   2.079       .  S
Cd308       O311   2.015       .  S
Cd309       O313   2.059       .  S
Cd309       O322   2.067       .  S
Cd309       O311   2.009       .  S
O310        C320   1.278       .  A
O311       Cd312   2.009       .  S
Cd312       O314   2.086       .  S
O313        C320   1.275       .  A
C315        O319   1.268       .  A
C315        C380   1.468       .  S
C316        C413   1.472       .  S
C318        C630   1.492       .  S
C320        C440   1.479       .  S
C321        O322   1.275       .  A
C321        C403   1.485       .  S
O323        C339   1.272       .  A
O323       Zn329   1.994       .  S
C324        O340   1.271       .  A
C324        O337   1.273       .  A
C324        C373   1.466       .  S
O325        C338   1.274       .  A
O325       Cd332   2.099       .  S
O326        C344   1.277       .  A
O326       Cd335   2.079       .  S
O327        C341   1.277       .  A
O327       Cd331   2.079       .  S
O328        C339   1.276       .  A
O328       Cd331   2.102       .  S
Zn329       O340   1.981       .  S
Zn329       O342   1.978       .  S
Zn329       O334   1.906       .  S
O330        C341   1.276       .  A
O330       Cd335   2.075       .  S
Cd331       O333   2.085       .  S
Cd331       O334   2.013       .  S
Cd332       O336   2.064       .  S
Cd332       O345   2.074       .  S
Cd332       O334   2.014       .  S
O333        C343   1.279       .  A
O334       Cd335   2.013       .  S
Cd335       O337   2.082       .  S
O336        C343   1.275       .  A
C338        O342   1.269       .  A
C338        C473   1.474       .  S
C339        C563   1.477       .  S
C341        C383   1.488       .  S
C343        C570   1.488       .  S
C344        O345   1.276       .  A
C344        C423   1.486       .  S
O346        C362   1.270       .  A
O346       Zn352   1.981       .  S
C347        O363   1.270   1_554  A
C347        O360   1.275       .  A
C347        C483   1.478       .  S
O348        C361   1.275       .  A
O348       Cd355   2.090       .  S
O349        C367   1.277       .  A
O349       Cd358   2.074       .  S
O350        C364   1.276       .  A
O350       Cd354   2.068   1_554  S
O351        C362   1.276       .  A
O351       Cd354   2.104       .  S
Zn352       O363   1.978       .  S
Zn352       O365   1.964       .  S
Zn352       O357   1.888       .  S
O353        C364   1.277       .  A
O353       Cd358   2.069       .  S
Cd354       O356   2.064       .  S
Cd354       O357   2.004       .  S
Cd355       O359   2.076       .  S
Cd355       O368   2.076   1_556  S
Cd355       O357   2.014       .  S
O356        C366   1.276       .  A
O357       Cd358   2.008   1_556  S
Cd358       O360   2.101       .  S
O359        C366   1.277       .  A
C361        O365   1.269       .  A
C361        C370   1.469       .  S
C362        C533   1.481       .  S
C364        C453   1.484       .  S
C366        C493   1.484       .  S
C367        O368   1.277       .  A
C367        C393   1.487       .  S
C369        C370   1.406       .  A
C369        C374   1.405       .  A
C369        H376   1.082       .  S
C370        C371   1.405       .  A
C371        C372   1.387       .  A
C371        F378   1.359       .  S
C372        C373   1.400       .  A
C372        H377   1.083       .  S
C373        C374   1.405       .  A
C374        F375   1.357       .  S
C379        C380   1.401       .  A
C379        C384   1.398       .  A
C379        H386   1.082       .  S
C380        C381   1.401       .  A
C381        C382   1.400       .  A
C381        F388   1.357       .  S
C382        C383   1.410       .  A
C382        H387   1.081       .  S
C383        C384   1.412       .  A
C384        F385   1.358       .  S
C389        C390   1.406       .  A
C389        C394   1.397       .  A
C389        H396   1.085       .  S
C390        C391   1.410       .  A
C391        C392   1.399       .  A
C391        F398   1.358       .  S
C392        C393   1.407       .  A
C392        H397   1.085       .  S
C393        C394   1.410       .  A
C394        F395   1.357       .  S
C399        C400   1.399       .  A
C399        C404   1.397       .  A
C399        H406   1.083       .  S
C400        C401   1.401       .  A
C401        C402   1.399       .  A
C401        F408   1.357       .  S
C402        C403   1.409       .  A
C402        H407   1.082       .  S
C403        C404   1.412       .  A
C404        F405   1.357       .  S
C409        C410   1.401       .  A
C409        C414   1.390       .  A
C409        H416   1.084       .  S
C410        C411   1.409       .  A
C411        C412   1.407       .  A
C411        F418   1.357       .  S
C412        C413   1.404       .  A
C412        H417   1.083       .  S
C413        C414   1.405       .  A
C414        F415   1.359       .  S
C419        C420   1.402       .  A
C419        C424   1.398       .  A
C419        H426   1.084       .  S
C420        C421   1.403       .  A
C421        C422   1.402       .  A
C421        F428   1.357       .  S
C422        C423   1.409       .  A
C422        H427   1.083       .  S
C423        C424   1.410       .  A
C424        F425   1.358       .  S
C429        C430   1.408       .  A
C429        C434   1.409       .  A
C429        H436   1.082       .  S
C430        C431   1.406       .  A
C431        C432   1.387       .  A
C431        F438   1.359       .  S
C432        C433   1.402       .  A
C432        H437   1.084       .  S
C433        C434   1.408       .  A
C434        F435   1.357       .  S
C439        C440   1.405       .  A
C439        C444   1.393       .  A
C439        H446   1.083       .  S
C440        C441   1.409       .  A
C441        C442   1.401       .  A
C441        F448   1.357       .  S
C442        C443   1.402       .  A
C442        H447   1.082       .  S
C443        C444   1.403       .  A
C444        F445   1.358       .  S
C449        C450   1.406       .  A
C449        C454   1.396       .  A
C449        H456   1.084       .  S
C450        C451   1.409       .  A
C451        C452   1.398       .  A
C451        F458   1.357       .  S
C452        C453   1.407       .  A
C452        H457   1.084       .  S
C453        C454   1.409       .  A
C454        F455   1.358       .  S
C459        C460   1.408       .  A
C459        C464   1.401       .  A
C459        H466   1.086       .  S
C460        C461   1.410       .  A
C461        C462   1.399       .  A
C461        F468   1.357       .  S
C462        C463   1.406       .  A
C462        H467   1.086       .  S
C463        C464   1.411       .  A
C464        F465   1.358       .  S
C469        C470   1.400       .  A
C469        C474   1.390       .  A
C469        H476   1.084       .  S
C470        C471   1.407       .  A
C471        C472   1.408       .  A
C471        F478   1.357       .  S
C472        C473   1.406       .  A
C472        H477   1.083       .  S
C473        C474   1.405       .  A
C474        F475   1.358       .  S
C479        C480   1.402       .  A
C479        C484   1.389       .  A
C479        H486   1.085   1_554  S
C480        C481   1.408       .  A
C481        C482   1.409       .  A
C481        F488   1.357       .  S
C482        C483   1.408       .  A
C482        H487   1.084       .  S
C483        C484   1.406       .  A
C484        F485   1.358   1_554  S
C489        C490   1.404       .  A
C489        C494   1.393       .  A
C489        H496   1.084       .  S
C490        C491   1.409       .  A
C491        C492   1.401       .  A
C491        F498   1.357       .  S
C492        C493   1.407       .  A
C492        H497   1.084       .  S
C493        C494   1.409       .  A
C494        F495   1.358       .  S
C499        C500   1.406       .  A
C499        C504   1.398       .  A
C499        H506   1.084       .  S
C500        C501   1.411       .  A
C501        C502   1.399       .  A
C501        F508   1.357       .  S
C502        C503   1.406       .  A
C502        H507   1.084       .  S
C503        C504   1.410       .  A
C504        F505   1.357       .  S
C509        C510   1.408       .  A
C509        C514   1.401       .  A
C509        H516   1.086       .  S
C510        C511   1.410       .  A
C511        C512   1.399       .  A
C511        F518   1.357       .  S
C512        C513   1.406       .  A
C512        H517   1.086       .  S
C513        C514   1.412       .  A
C514        F515   1.358       .  S
C519        C520   1.401       .  A
C519        C524   1.401       .  A
C519        H526   1.084       .  S
C520        C521   1.401       .  A
C521        C522   1.395       .  A
C521        F528   1.358       .  S
C522        C523   1.408       .  A
C522        H527   1.083       .  S
C523        C524   1.411       .  A
C524        F525   1.357       .  S
C529        C530   1.407       .  A
C529        C534   1.409       .  A
C529        H536   1.082       .  S
C530        C531   1.406       .  A
C531        C532   1.390       .  A
C531        F538   1.358       .  S
C532        C533   1.403       .  A
C532        H537   1.083       .  S
C533        C534   1.409       .  A
C534        F535   1.357       .  S
C539        C540   1.408       .  A
C539        C544   1.402       .  A
C539        H546   1.085       .  S
C540        C541   1.410       .  A
C541        C542   1.396       .  A
C541        F548   1.358       .  S
C542        C543   1.407       .  A
C542        H547   1.085       .  S
C543        C544   1.410       .  A
C544        F545   1.357       .  S
C549        C550   1.401       .  A
C549        C554   1.390       .  A
C549        H556   1.084       .  S
C550        C551   1.409       .  A
C551        C552   1.408       .  A
C551        F558   1.357       .  S
C552        C553   1.405       .  A
C552        H557   1.083       .  S
C553        C554   1.405       .  A
C554        F555   1.359       .  S
C559        C560   1.402       .  A
C559        C564   1.390       .  A
C559        H566   1.084       .  S
C560        C561   1.410       .  A
C561        C562   1.410       .  A
C561        F568   1.357       .  S
C562        C563   1.407       .  A
C562        H567   1.083       .  S
C563        C564   1.403       .  A
C564        F565   1.358       .  S
C569        C570   1.408       .  A
C569        C574   1.400       .  A
C569        H576   1.083       .  S
C570        C571   1.413       .  A
C571        C572   1.398       .  A
C571        F578   1.358       .  S
C572        C573   1.399       .  A
C572        H577   1.084       .  S
C573        C574   1.403       .  A
C574        F575   1.357       .  S
C579        C580   1.410       .  A
C579        C584   1.400       .  A
C579        H586   1.082       .  S
C580        C581   1.413       .  A
C581        C582   1.401       .  A
C581        F588   1.357       .  S
C582        C583   1.401       .  A
C582        H587   1.083       .  S
C583        C584   1.402       .  A
C584        F585   1.358       .  S
C589        C590   1.400       .  A
C589        C594   1.385       .  A
C589        H596   1.084       .  S
C590        C591   1.407       .  A
C591        C592   1.407       .  A
C591        F598   1.357       .  S
C592        C593   1.407       .  A
C592        H597   1.083       .  S
C593        C594   1.406       .  A
C594        F595   1.359       .  S
C599        C600   1.402       .  A
C599        C604   1.392       .  A
C599        H606   1.082       .  S
C600        C601   1.407       .  A
C601        C602   1.406       .  A
C601        F608   1.357       .  S
C602        C603   1.405       .  A
C602        H607   1.082       .  S
C603        C604   1.404       .  A
C604        F605   1.358       .  S
C609        C610   1.401       .  A
C609        C614   1.400       .  A
C609        H616   1.083       .  S
C610        C611   1.401       .  A
C611        C612   1.399       .  A
C611        F618   1.358       .  S
C612        C613   1.409       .  A
C612        H617   1.083       .  S
C613        C614   1.413       .  A
C614        F615   1.357       .  S
C619        C620   1.406       .  A
C619        C624   1.394       .  A
C619        H626   1.083       .  S
C620        C621   1.412       .  A
C621        C622   1.403       .  A
C621        F628   1.357       .  S
C622        C623   1.401       .  A
C622        H627   1.083       .  S
C623        C624   1.402       .  A
C624        F625   1.358       .  S
C629        C630   1.406       .  A
C629        C634   1.400       .  A
C629        H636   1.084       .  S
C630        C631   1.412       .  A
C631        C632   1.400       .  A
C631        F638   1.357       .  S
C632        C633   1.406       .  A
C632        H637   1.084       .  S
C633        C634   1.411       .  A
C634        F635   1.357       .  S
C639        C640   1.409       .  A
C639        C644   1.399       .  A
C639        H646   1.083       .  S
C640        C641   1.413       .  A
C641        C642   1.400       .  A
C641        F648   1.357       .  S
C642        C643   1.401       .  A
C642        H647   1.083       .  S
C643        C644   1.401       .  A
C644        F645   1.357       .  S
C649        C650   1.408       .  A
C649        C654   1.400       .  A
C649        H656   1.084       .  S
C650        C651   1.409       .  A
C651        C652   1.398       .  A
C651        F658   1.357       .  S
C652        C653   1.408       .  A
C652        H657   1.084       .  S
C653        C654   1.409       .  A
C654        F655   1.357       .  S
C659        C660   1.409       .  A
C659        C664   1.400       .  A
C659        H666   1.082       .  S
C660        C661   1.413       .  A
C661        C662   1.398       .  A
C661        F668   1.358       .  S
C662        C663   1.399       .  A
C662        H667   1.082       .  S
C663        C664   1.402       .  A
C664        F665   1.357       .  S
C669        C670   1.409       .  A
C669        C674   1.402       .  A
C669        H676   1.083       .  S
C670        C671   1.413       .  A
C671        C672   1.396       .  A
C671        F678   1.358       .  S
C672        C673   1.399       .  A
C672        H677   1.083       .  S
C673        C674   1.403       .  A
C674        F675   1.357       .  S
C679        C680   1.408       .  A
C679        C684   1.396       .  A
C679        H686   1.082       .  S
C680        C681   1.413       .  A
C681        C682   1.405       .  A
C681        F688   1.357       .  S
C682        C683   1.403       .  A
C682        H687   1.082       .  S
C683        C684   1.401       .  A
C684        F685   1.358       .  S
C689        C690   1.408       .  A
C689        C694   1.394       .  A
C689        H696   1.083       .  S
C690        C691   1.411       .  A
C691        C692   1.403       .  A
C691        F698   1.357       .  S
C692        C693   1.402       .  A
C692        H697   1.083       .  S
C693        C694   1.400       .  A
C694        F695   1.358       .  S
C699        C700   1.408       .  A
C699        C704   1.400       .  A
C699        H706   1.084       .  S
C700        C701   1.409       .  A
C701        C702   1.395       .  A
C701        F708   1.358       .  S
C702        C703   1.406       .  A
C702        H707   1.084       .  S
C703        C704   1.408       .  A
C704        F705   1.357       .  S
C709        C710   1.409       .  A
C709        C714   1.399       .  A
C709        H716   1.082       .  S
C710        C711   1.412       .  A
C711        C712   1.399       .  A
C711        F718   1.357       .  S
C712        C713   1.400       .  A
C712        H717   1.082       .  S
C713        C714   1.402       .  A
C714        F715   1.358       .  S
C719        C720   1.400       .  A
C719        C724   1.400       .  A
C719        H726   1.083       .  S
C720        C721   1.402       .  A
C721        C722   1.396       .  A
C721        F728   1.358       .  S
C722        C723   1.408       .  A
C722        H727   1.083       .  S
C723        C724   1.411       .  A
C724        F725   1.357       .  S
C729        C730   1.402       .  A
C729        C734   1.393       .  A
C729        H736   1.084       .  S
C730        C731   1.407       .  A
C731        C732   1.407       .  A
C731        F738   1.357       .  S
C732        C733   1.406       .  A
C732        H737   1.083       .  S
C733        C734   1.404       .  A
C734        F735   1.358       .  S
C739        C740   1.402       .  A
C739        C744   1.386       .  A
C739        H746   1.084       .  S
C740        C741   1.409       .  A
C741        C742   1.409       .  A
C741        F748   1.357       .  S
C742        C743   1.407       .  A
C742        H747   1.083       .  S
C743        C744   1.404       .  A
C744        F745   1.359       .  S
C749        C750   1.401       .  A
C749        C754   1.401       .  A
C749        H756   1.083       .  S
C750        C751   1.402       .  A
C751        C752   1.396       .  A
C751        F758   1.358       .  S
C752        C753   1.406       .  A
C752        H757   1.083       .  S
C753        C754   1.411       .  A
C754        F755   1.357       .  S
C759        C760   1.408       .  A
C759        C764   1.401       .  A
C759        H766   1.083       .  S
C760        C761   1.410       .  A
C761        C762   1.394       .  A
C761        F768   1.358       .  S
C762        C763   1.401       .  A
C762        H767   1.084       .  S
C763        C764   1.403       .  A
C764        F765   1.357       .  S
C769        C770   1.406       .  A
C769        C774   1.397       .  A
C769        H776   1.085       .  S
C770        C771   1.410       .  A
C771        C772   1.398       .  A
C771        F778   1.357       .  S
C772        C773   1.407       .  A
C772        H777   1.085       .  S
C773        C774   1.409       .  A
C774        F775   1.357       .  S
C779        C780   1.405       .  A
C779        C784   1.397       .  A
C779        H786   1.084       .  S
C780        C781   1.411       .  A
C781        C782   1.399       .  A
C781        F788   1.358       .  S
C782        C783   1.406       .  A
C782        H787   1.084       .  S
C783        C784   1.411       .  A
C784        F785   1.357       .  S
C789        C790   1.401       .  A
C789        C794   1.390       .  A
C789        H796   1.084   1_554  S
C790        C791   1.410       .  A
C791        C792   1.411       .  A
C791        F798   1.357       .  S
C792        C793   1.407       .  A
C792        H797   1.083       .  S
C793        C794   1.406       .  A
C794        F795   1.359   1_554  S
C799        C800   1.407       .  A
C799        C804   1.400       .  A
C799        H806   1.083       .  S
C800        C801   1.410       .  A
C801        C802   1.399       .  A
C801        F808   1.358       .  S
C802        C803   1.408       .  A
C802        H807   1.084       .  S
C803        C804   1.409       .  A
C804        F805   1.357       .  S
C809        C810   1.401       .  A
C809        C814   1.400       .  A
C809        H816   1.083       .  S
C810        C811   1.402       .  A
C811        C812   1.402       .  A
C811        F818   1.357       .  S
C812        C813   1.410       .  A
C812        H817   1.083       .  S
C813        C814   1.413       .  A
C814        F815   1.358       .  S
C819        C820   1.409       .  A
C819        C824   1.401       .  A
C819        H826   1.083       .  S
C820        C821   1.414       .  A
C821        C822   1.405       .  A
C821        F828   1.357       .  S
C822        C823   1.403       .  A
C822        H827   1.083       .  S
C823        C824   1.404       .  A
C824        F825   1.358       .  S
C829        C830   1.409       .  A
C829        C834   1.400       .  A
C829        H836   1.082       .  S
C830        C831   1.413       .  A
C831        C832   1.398       .  A
C831        F838   1.357       .  S
C832        C833   1.399       .  A
C832        H837   1.083       .  S
C833        C834   1.402       .  A
C834        F835   1.358       .  S
C839        C840   1.401       .  A
C839        C844   1.396       .  A
C839        H846   1.083       .  S
C840        C841   1.404       .  A
C841        C842   1.404       .  A
C841        F848   1.357       .  S
C842        C843   1.408       .  A
C842        H847   1.082       .  S
C843        C844   1.412       .  A
C844        F845   1.358       .  S
