geometry optimzed in LAMMPS
_audit_creation_date              2020-11-30 
_audit_creation_method            'lammps2cif' 
_symmetry_space_group_name_H-M    'P1' 
_symmetry_Int_Tables_number       1 
_symmetry_cell_setting            triclinic 
loop_ 
_symmetry_equiv_pos_as_xyz 
  x,y,z 
_cell_length_a                    45.70859185 
_cell_length_b                    45.99981734603108 
_cell_length_c                    33.893514913237 
_cell_angle_alpha                 98.46930320752344 
_cell_angle_beta                  88.17063061206484 
_cell_angle_gamma                 88.5170395904188 
loop_ 
_atom_site_label 
_atom_site_type_symbol 
_atom_site_fract_x 
_atom_site_fract_y 
_atom_site_fract_z 
_atom_site_charge 
C1          C  0.42458568  0.17996437  0.45114416     0.30200
C2          C  0.42322664  0.18252014  0.03145213     0.30200
C3          C  0.43020017  0.15049506  0.46624299    -0.06000
C4          C  0.44632085  0.20100709  0.47329476    -0.06800
C5          C  0.39517293  0.19170334  0.47285475    -0.06600
C6          C  0.42855971  0.15143130  0.00711092    -0.06000
C7          C  0.44580002  0.20170589  0.01410272    -0.06700
C8          C  0.39405992  0.19301240  0.01423645    -0.06600
C9          C  0.43882905  0.12416270  0.01468545    -0.32000
N10         N  0.44915076  0.10780647  0.48008468     0.14500
C11         C  0.44377428  0.12381699  0.45028958    -0.32000
H12         H  0.45227854  0.11801918  0.41991205     0.16400
C13         C  0.46520803  0.22249040  0.02969311    -0.31000
N14         N  0.47754005  0.23453305  0.99931272     0.13200
C15         C  0.46570061  0.22220787  0.46475497    -0.31000
C16         C  0.36622381  0.20489454  0.02737735    -0.31300
N17         N  0.35115687  0.21134638  0.99542338     0.13700
H18         H  0.35729472  0.20819569  0.05767997     0.16300
C19         C  0.36888117  0.20351096  0.46231258    -0.31300
H20         H  0.36308941  0.20663316  0.43248629     0.16300
H21         H  0.47095003  0.22818037  0.43569994     0.16300
H22         H  0.44252845  0.11824760  0.04388834     0.16400
H23         H  0.47001936  0.22847606  0.06085099     0.16300
C24         C  0.42758296  0.18076688  0.20093592     0.30200
C25         C  0.42483985  0.17935000  0.28073143     0.30200
C26         C  0.43658219  0.15096994  0.21361121    -0.06000
C27         C  0.44688056  0.20247888  0.22586095    -0.06800
C28         C  0.39705068  0.18614772  0.22152070    -0.06600
C29         C  0.43471418  0.15056729  0.25450991    -0.06000
C30         C  0.44558803  0.20211124  0.26657981    -0.06700
C31         C  0.39578543  0.18714145  0.26261821    -0.06600
C32         C  0.44617500  0.12412197  0.26170234    -0.32000
N33         N  0.45535800  0.10823175  0.22648971     0.14500
C34         C  0.44962237  0.12426225  0.19685467    -0.32000
H35         H  0.45664556  0.11760641  0.16603944     0.16400
C36         C  0.46541035  0.22242241  0.28283118    -0.31000
N37         N  0.47931003  0.23388588  0.25276352     0.13200
C38         C  0.46776588  0.22206891  0.21784606    -0.31000
C39         C  0.36773159  0.19685148  0.27563277    -0.31300
N40         N  0.35174220  0.19923633  0.24315470     0.13700
H41         H  0.35996782  0.20313883  0.30628869     0.16300
C42         C  0.36925895  0.19188431  0.21006448    -0.31300
H43         H  0.36260935  0.19297298  0.17994528     0.16300
H44         H  0.47473611  0.22668314  0.18863278     0.16300
H45         H  0.45073038  0.11830999  0.29077045     0.16400
H46         H  0.46967196  0.22831345  0.31415168     0.16300
C47         C  0.37661654  0.42516906  0.03836809     0.30200
C48         C  0.37158444  0.42617784  0.45996508     0.30200
C49         C  0.36470848  0.39739184  0.01554288    -0.06000
C50         C  0.35529320  0.44896758  0.02751373    -0.06800
C51         C  0.40498178  0.42967993  0.01637819    -0.06600
C52         C  0.36136025  0.39727040  0.47457151    -0.06000
C53         C  0.35262548  0.44924028  0.48671738    -0.06700
C54         C  0.40266033  0.43139026  0.47586470    -0.06600
C55         C  0.33660077  0.38030691  0.46542552    -0.32000
N56         N  0.32620426  0.37038135  0.99897414     0.14500
C57         C  0.34297174  0.38134461  0.02912960    -0.32000
H58         H  0.33829889  0.37980154  0.06027443     0.16400
C59         C  0.32516069  0.46060049  0.48168265    -0.31000
N60         N  0.31213455  0.46943264  0.01783935     0.13200
C61         C  0.32933615  0.46065615  0.04576153    -0.31000
C62         C  0.42280957  0.45231036  0.46793091    -0.31300
N63         N  0.43726925  0.46177386  0.00153457     0.13700
H64         H  0.42446900  0.46216245  0.44089744     0.16300
C65         C  0.42661878  0.44789273  0.03079821    -0.31300
H66         H  0.43131395  0.45380733  0.06202706     0.16300
H67         H  0.32271809  0.46136435  0.07683538     0.16300
H68         H  0.32560664  0.37773252  0.43737553     0.16400
H69         H  0.31509428  0.46188492  0.45348610     0.16300
C70         C  0.37214230  0.42353525  0.28781726     0.30200
C71         C  0.37544268  0.42419847  0.20819104     0.30200
C72         C  0.36972532  0.39340113  0.26197503    -0.06000
C73         C  0.34737567  0.44124838  0.27140818    -0.06800
C74         C  0.39987557  0.43615366  0.27189749    -0.06600
C75         C  0.37179455  0.39346016  0.22047636    -0.06000
C76         C  0.34888928  0.44118416  0.23039801    -0.06700
C77         C  0.40169115  0.43625268  0.23123104    -0.06600
C78         C  0.35496043  0.37052236  0.20347203    -0.32000
N79         N  0.34360769  0.35678017  0.23262594     0.14500
C80         C  0.35141315  0.37102843  0.26811315    -0.32000
H81         H  0.34265657  0.36674306  0.29668738     0.16400
C82         C  0.32554901  0.45813968  0.22108141    -0.31000
N83         N  0.31109180  0.46991459  0.25546090     0.13200
C84         C  0.32351048  0.45895303  0.28624489    -0.31000
C85         C  0.42336432  0.45518999  0.22372587    -0.31300
N86         N  0.43387525  0.46733014  0.25897734     0.13700
H87         H  0.42969060  0.46124148  0.19506379     0.16300
C88         C  0.41973187  0.45592163  0.28865159    -0.31300
H89         H  0.42226780  0.46303349  0.32021860     0.16300
H90         H  0.31644217  0.46479644  0.31722429     0.16300
H91         H  0.34892941  0.36601269  0.17260160     0.16400
H92         H  0.32060247  0.46334585  0.19185833     0.16300
O93         O  0.07684553  0.06476957  0.48308146    -0.80700
O94         O  0.46605219  0.99982728  0.48135448    -0.65400
O95         O  0.02420599  0.05496039  0.01496658    -1.12000
C96         C  0.07234639  0.46701171  0.04685239     1.06200
O97         O  0.46912810  0.49007150  0.04267690    -0.78600
O98         O  0.01034659  0.49658548  0.10163875    -0.66100
Ni99       Ni  0.03805965  0.08023352  0.47894996     1.34900
C100        C  0.02422446  0.01982850  0.11458200     0.85000
O101        O  0.46850262  0.06015978  0.48382751    -0.79100
O102        O  0.99916243  0.09684645  0.47605917    -0.89400
C103        C  0.45782598  0.48480964  0.00853562     0.84500
O104        O  0.03552378  0.05846468  0.42514331    -0.67600
O105        O  0.04640699  0.45776848  0.05113644    -0.86900
C106        C  0.02262495  0.03496377  0.41212557     0.85400
C107        C  0.47338213  0.08691522  0.47914613     1.06900
H108        H  0.03008158  0.48712088  0.48828848     0.38700
O109        O  0.02212723  0.49953722  0.01189441    -1.09500
O110        O  0.03834853  0.03378019  0.08961786    -0.66200
Ni111      Ni  0.05157840  0.02597032  0.03128213     1.26300
O112        O  0.00881445  0.02079684  0.43708903    -0.66400
O113        O  0.07776902  0.49372923  0.04189015    -0.78700
C114        C  0.08900440  0.06936167  0.01664395     0.84700
O115        O  0.08096108  0.05493848  0.04432670    -0.65900
Ni116      Ni  0.00775816  0.47456817  0.04790152     1.27400
Ni117      Ni  0.49510398  0.02867412  0.99513914     1.26100
H118        H  0.01624817  0.06720804  0.03870776     0.39300
O119        O  0.08029254  0.05929145  0.22866257    -0.80700
O120        O  0.46520710  0.00148402  0.23480303    -0.65400
O121        O  0.02626883  0.05424261  0.26263909    -1.12000
C122        C  0.06892239  0.46725591  0.30239956     1.06200
O123        O  0.46737381  0.49465289  0.29806610    -0.78600
O124        O  0.00933106  0.50051314  0.35479067    -0.66100
Ni125      Ni  0.04220447  0.07676082  0.22469411     1.34900
C126        C  0.02375899  0.02352879  0.36626341     0.85000
O127        O  0.47164078  0.06036416  0.23065587    -0.79100
O128        O  0.00442997  0.09508710  0.22147061    -0.89400
C129        C  0.45577895  0.48901144  0.26434143     0.84500
O130        O  0.03754840  0.05391473  0.17245334    -0.67600
O131        O  0.04270491  0.45890633  0.30688189    -0.86900
C132        C  0.02340174  0.03102939  0.16056227     0.85400
C133        C  0.47821738  0.08638782  0.22482529     1.06900
H134        H  0.02854813  0.48572265  0.24195763     0.38700
O135        O  0.02114120  0.49941803  0.26469347    -1.07500
O136        O  0.03835246  0.03630377  0.34030471    -0.66200
Ni137      Ni  0.05139718  0.02524122  0.28179423     1.26300
O138        O  0.00921082  0.01788748  0.18650353    -0.66400
O139        O  0.07567221  0.49310769  0.29605788    -0.78700
C140        C  0.09267835  0.06360864  0.26204444     0.84700
O141        O  0.08245709  0.05223389  0.29155601    -0.65900
Ni142      Ni  0.00509261  0.47716907  0.30296581     1.27400
Ni143      Ni  0.49594143  0.02883425  0.24491835     1.26100
H144        H  0.01879679  0.06781036  0.28547918     0.39300
C145        C  0.12214577  0.37052468  0.49143276     0.30200
C146        C  0.12079710  0.37211924  0.07161931     0.30200
C147        C  0.11536315  0.40120984  0.01633872    -0.06000
C148        C  0.10047611  0.35010550  0.00808145    -0.06800
C149        C  0.15166865  0.36116996  0.00859713    -0.06600
C150        C  0.11379915  0.40158597  0.05707335    -0.06000
C151        C  0.09997466  0.35022861  0.04882786    -0.06700
C152        C  0.15065771  0.36191864  0.04985178    -0.06600
C153        C  0.10099928  0.42845396  0.07391855    -0.32000
N154        N  0.09592998  0.44519751  0.04475599     0.14500
C155        C  0.10542145  0.42886023  0.50960615    -0.32000
H156        H  0.10172986  0.43525057  0.48065863     0.16400
C157        C  0.08121224  0.32820704  0.05646120    -0.31000
N158        N  0.06955440  0.31616566  0.02158456     0.13200
C159        C  0.08156229  0.32906058  0.49178848    -0.31000
C160        C  0.17722380  0.35026674  0.05987173    -0.31300
N161        N  0.19481856  0.34300908  0.02646217     0.13700
H162        H  0.18312205  0.34652899  0.08942343     0.16300
C163        C  0.17956495  0.34987781  0.49498570    -0.31300
H164        H  0.18835396  0.34698001  0.46462726     0.16300
H165        H  0.07669759  0.32363792  0.46056392     0.16300
H166        H  0.09299412  0.43404666  0.10457253     0.16400
H167        H  0.07609334  0.32162287  0.08518989     0.16300
C168        C  0.12224221  0.37495383  0.24244785     0.30200
C169        C  0.11960017  0.37187553  0.32186431     0.30200
C170        C  0.11133213  0.40293970  0.26955389    -0.06000
C171        C  0.10268345  0.35092522  0.25554596    -0.06800
C172        C  0.15160431  0.36804622  0.26042896    -0.06600
C173        C  0.10965245  0.40166337  0.31021525    -0.06000
C174        C  0.10121768  0.34978646  0.29603753    -0.06700
C175        C  0.15033427  0.36796941  0.30143213    -0.06600
C176        C  0.09715503  0.42825563  0.32823362    -0.32000
N177        N  0.09146182  0.44507509  0.29951325     0.14500
C178        C  0.10020234  0.42981458  0.26366800    -0.32000
H179        H  0.09587414  0.43655402  0.23505931     0.16400
C180        C  0.08131538  0.32890688  0.30277773    -0.31000
N181        N  0.07069286  0.31706592  0.26723260     0.13200
C182        C  0.08424512  0.32971946  0.23807355    -0.31000
C183        C  0.17817131  0.36203939  0.31250175    -0.31300
N184        N  0.19568382  0.35544426  0.27921210     0.13700
H185        H  0.18478528  0.35993995  0.34234751     0.16300
C186        C  0.17969825  0.35882538  0.24705550    -0.31300
H187        H  0.18730489  0.35292598  0.21627469     0.16300
H188        H  0.08055828  0.32408291  0.20654511     0.16300
H189        H  0.09076010  0.43448842  0.35936540     0.16400
H190        H  0.07431769  0.32344160  0.33153547     0.16300
C191        C  0.17881048  0.12190423  0.06374913     0.30200
C192        C  0.17860087  0.11392476  0.48312861     0.30200
C193        C  0.19471635  0.14539476  0.04354040    -0.06000
C194        C  0.19259159  0.09270386  0.04281913    -0.06800
C195        C  0.14794510  0.11972787  0.04596446    -0.06600
C196        C  0.19493677  0.14024195  0.50264693    -0.06000
C197        C  0.19362196  0.08875698  0.50122939    -0.06700
C198        C  0.14824693  0.11726464  0.50405903    -0.06600
C199        C  0.21444540  0.15842851  0.48836603    -0.32000
N200        N  0.22554049  0.17618700  0.01927369     0.14500
C201        C  0.21350038  0.16870542  0.05364286    -0.32000
H202        H  0.21881803  0.17855043  0.08343828     0.16400
C203        C  0.21136707  0.06409325  0.48924834    -0.31000
N204        N  0.21817457  0.05179695  0.02199438     0.13200
C205        C  0.20647862  0.06900349  0.05476520    -0.31000
C206        C  0.12489859  0.10076830  0.49105969    -0.31300
N207        N  0.11138333  0.09083244  0.02197018     0.13700
H208        H  0.12108421  0.09249351  0.46012215     0.16300
C209        C  0.12524413  0.10169545  0.05547724    -0.31300
H210        H  0.12169505  0.09408025  0.08392754     0.16300
H211        H  0.20974748  0.06549698  0.08522183     0.16300
H212        H  0.22035640  0.15854488  0.45719394     0.16400
H213        H  0.22060569  0.05684879  0.45955453     0.16300
C214        C  0.17750723  0.12470218  0.31507375     0.30200
C215        C  0.17930006  0.12514176  0.23516470     0.30200
C216        C  0.18169225  0.15506523  0.30222482    -0.06000
C217        C  0.20298806  0.10662805  0.29172350    -0.06800
C218        C  0.15059523  0.11280864  0.29290738    -0.06600
C219        C  0.18181567  0.15515884  0.26097757    -0.06000
C220        C  0.20353432  0.10611941  0.25056483    -0.06700
C221        C  0.15173194  0.11264967  0.25202488    -0.06600
C222        C  0.19641823  0.17958204  0.25324048    -0.32000
N223        N  0.20507391  0.19437099  0.28801016     0.14500
C224        C  0.19793042  0.17893145  0.31768399    -0.32000
H225        H  0.20562473  0.18364155  0.34776195     0.16400
C226        C  0.22165161  0.08247517  0.23441852    -0.31000
N227        N  0.23331167  0.07028158  0.26470582     0.13200
C228        C  0.22253660  0.08518302  0.29971642    -0.31000
C229        C  0.13119526  0.09333080  0.23618106    -0.31300
N230        N  0.11693168  0.08272264  0.26646208     0.13700
H231        H  0.12771191  0.08654139  0.20476519     0.16300
C232        C  0.12880951  0.09412792  0.30122331    -0.31300
H233        H  0.12296708  0.08814339  0.33009790     0.16300
H234        H  0.22721700  0.07925198  0.32863418     0.16300
H235        H  0.20248541  0.18490677  0.22405577     0.16400
H236        H  0.22505126  0.07380011  0.20311989     0.16300
O237        O  0.28642523  0.25130322  0.40807203    -0.80700
O238        O  0.28024634  0.25833533  0.09435165    -0.65400
O239        O  0.25828232  0.25861054  0.48519388    -1.12000
C240        C  0.30300948  0.35085597  0.00562943     1.06200
O241        O  0.25903769  0.30205235  0.11150352    -0.78600
O242        O  0.23780346  0.33515924  0.05892696    -0.66100
Ni243      Ni  0.27023220  0.22672753  0.44459698     1.34900
C244        C  0.22463284  0.33096029  0.02630480     0.85000
O245        O  0.25020717  0.21983469  0.04160887    -0.79100
O246        O  0.25366414  0.19989409  0.47676223    -0.89400
C247        C  0.27236786  0.27976385  0.12128476     0.84500
O248        O  0.30901830  0.21947131  0.46110767    -0.67600
O249        O  0.29422243  0.35150401  0.04201639    -0.86900
C250        C  0.32119972  0.22289048  0.99452367     0.85400
C251        C  0.24462156  0.19965037  0.01284930     1.06900
H252        H  0.30748064  0.29101270  0.03341117     0.38700
O253        O  0.28640216  0.29345382  0.03402756    -1.09500
O254        O  0.23676317  0.31654734  0.49442805    -0.66200
Ni255      Ni  0.27483401  0.29568658  0.48030662     1.26300
O256        O  0.30787524  0.23593712  0.02632226    -0.66400
O257        O  0.29477034  0.33185987  0.47707771    -0.78700
C258        C  0.27238595  0.27319445  0.39839956     0.84700
O259        O  0.26359240  0.29411709  0.42545604    -0.65900
Ni260      Ni  0.27624156  0.32580311  0.07468557     1.27400
Ni261      Ni  0.26954831  0.25650958  0.03913250     1.26100
H262        H  0.23717824  0.26060852  0.48514546     0.39300
O263        O  0.31823595  0.22645329  0.21256224    -0.80700
O264        O  0.23929824  0.33348015  0.24771059    -0.65400
O265        O  0.30091168  0.27761358  0.25678326    -1.12000
C266        C  0.22099957  0.22075227  0.29116856     1.06200
O267        O  0.22782570  0.32574663  0.30806799    -0.78600
O268        O  0.23882570  0.28338277  0.35083312    -0.66100
Ni269      Ni  0.32860489  0.26635970  0.21401224     1.34900
C270        C  0.26382668  0.27264179  0.35626513     0.85000
O271        O  0.29922473  0.33446334  0.23997336    -0.79100
O272        O  0.33930759  0.30666482  0.21552776    -0.89400
C273        C  0.22255993  0.33879593  0.27866374     0.84500
O274        O  0.30560463  0.26770400  0.16833398    -0.67600
O275        O  0.20657840  0.24516983  0.30086484    -0.86900
C276        C  0.28140566  0.28030476  0.16333803     0.85400
C277        C  0.32618714  0.33140434  0.22806312     1.06900
H278        H  0.23563422  0.26771428  0.23872785     0.38700
O279        O  0.24577805  0.27535582  0.26238885    -1.09500
O280        O  0.28040648  0.25991703  0.32744079    -0.66200
Ni281      Ni  0.27562183  0.24756833  0.27025364     1.26300
O282        O  0.26617511  0.29472269  0.19240689    -0.66400
O283        O  0.24831535  0.21860917  0.28135923    -0.78700
C284        C  0.32426381  0.21466127  0.24282658     0.84700
O285        O  0.30772776  0.22050644  0.27384233    -0.65900
Ni286      Ni  0.21717316  0.28571976  0.30425135     1.27400
Ni287      Ni  0.27123460  0.30574714  0.24993859     1.26100
H288        H  0.31164330  0.28516213  0.28001999     0.39300
C289        C  0.17692739  0.09379779  0.36955317    -0.08900
C290        C  0.17463638  0.12214711  0.35875425     0.07300
C291        C  0.16527168  0.14550788  0.38852760    -0.02700
C292        C  0.16670524  0.14151856  0.42804073    -0.07100
C293        C  0.17580359  0.11436697  0.43896718     0.06400
C294        C  0.17662692  0.08952965  0.40922379    -0.02200
Br295      Br  0.16901403  0.05029419  0.41856459    -0.01900
H296        H  0.17755980  0.07460087  0.34679554     0.10300
H297        H  0.16021393  0.15987566  0.45076402     0.08300
Br298      Br  0.14496116  0.18097296  0.37937747    -0.02300
C299        C  0.15518337  0.13692703  0.13204625    -0.08900
C300        C  0.18034820  0.12706503  0.10858154     0.07300
C301        C  0.20686572  0.12353007  0.12801047    -0.02700
C302        C  0.20607167  0.12321397  0.16889939    -0.07100
C303        C  0.17960258  0.12758633  0.19132973     0.06400
C304        C  0.15493713  0.13833635  0.17324349    -0.02200
Br305      Br  0.12125079  0.15747147  0.20250468    -0.01900
H306        H  0.13569285  0.14424818  0.11862518     0.10300
H307        H  0.22653245  0.12043767  0.18320460     0.08300
Br308      Br  0.24511144  0.11997759  0.10188383    -0.02300
C309        C  0.09502183  0.38226428  0.38989840    -0.08900
C310        C  0.11767140  0.36796965  0.36511308     0.07300
C311        C  0.13427393  0.34606648  0.38036892    -0.02700
C312        C  0.13621531  0.34776706  0.42138665    -0.07100
C313        C  0.11917668  0.36864348  0.44713490     0.06400
C314        C  0.09473752  0.38151594  0.43067279    -0.02200
Br315      Br  0.05807230  0.39275592  0.45935716    -0.01900
H316        H  0.07653716  0.39227480  0.37736028     0.10300
H317        H  0.14883819  0.33092983  0.43281965     0.08300
Br318      Br  0.14901428  0.31016184  0.34860736    -0.02300
C319        C  0.14451565  0.38618576  0.13672842    -0.08900
C320        C  0.11977673  0.37538410  0.11642678     0.07300
C321        C  0.09336358  0.37508759  0.13925961    -0.02700
C322        C  0.09477388  0.37538319  0.18010686    -0.07100
C323        C  0.12163920  0.37818470  0.19897837     0.06400
C324        C  0.14505156  0.38912077  0.17807641    -0.02200
Br325      Br  0.17376762  0.41470636  0.20341031    -0.01900
H326        H  0.16278878  0.39407619  0.12065525     0.10300
H327        H  0.07459541  0.37450491  0.19742821     0.08300
Br328      Br  0.05478528  0.37996203  0.11950646    -0.02300
C329        C  0.26484305  0.49226559  0.23789484    -0.08900
C330        C  0.29084994  0.99557323  0.25957726     0.07300
C331        C  0.29788825  0.02294339  0.28120519    -0.02700
C332        C  0.27878714  0.04720574  0.28211770    -0.07100
C333        C  0.25270728  0.04495637  0.26147054     0.06400
C334        C  0.24541317  0.01758688  0.24014330    -0.02200
Br335      Br  0.20863939  0.01194860  0.21481078    -0.01900
H336        H  0.25937499  0.47130430  0.22121216     0.10300
H337        H  0.28440919  0.06816824  0.29867397     0.08300
Br338      Br  0.33413402  0.02908685  0.30781391    -0.02300
C339        C  0.26255227  0.03448398  0.05010180    -0.08900
C340        C  0.23987213  0.02904791  0.02338943     0.07300
C341        C  0.23941214  0.00190808  0.99815052    -0.02700
C342        C  0.26265880  0.48133980  0.99908463    -0.07100
C343        C  0.28580210  0.98750269  0.02400241     0.06400
C344        C  0.28545799  0.01412810  0.05063950    -0.02200
Br345      Br  0.31691360  0.02584729  0.08526042    -0.01900
H346        H  0.26314015  0.05537252  0.06944459     0.10300
H347        H  0.26282726  0.46083621  0.97873270     0.08300
Br348      Br  0.20807944  0.99159044  0.96303940    -0.02300
C349        C  0.36608161  0.45034914  0.35706536    -0.08900
C350        C  0.37256087  0.42370712  0.33226921     0.07300
C351        C  0.38454570  0.40017173  0.34976660    -0.02700
C352        C  0.38192466  0.40108748  0.39086286    -0.07100
C353        C  0.37130367  0.42654304  0.41563947     0.06400
C354        C  0.36671279  0.45245560  0.39824261    -0.02200
Br355      Br  0.36642591  0.49213483  0.42614393    -0.01900
H356        H  0.36259214  0.47028716  0.34422992     0.10300
H357        H  0.39019261  0.38246239  0.40381390     0.08300
Br358      Br  0.41022470  0.36951595  0.32188216    -0.02300
C359        C  0.38944003  0.40048306  0.13862083    -0.08900
C360        C  0.37938555  0.42574519  0.16445254     0.07300
C361        C  0.37680721  0.45259662  0.14898539    -0.02700
C362        C  0.37689599  0.45187700  0.10808176    -0.07100
C363        C  0.38064433  0.42520132  0.08218077     0.06400
C364        C  0.39079535  0.40014638  0.09770109    -0.02200
Br365      Br  0.40796952  0.36542454  0.06580531    -0.01900
H366        H  0.39682142  0.38093221  0.15008523     0.10300
H367        H  0.37419214  0.47245306  0.09650393     0.08300
Br368      Br  0.37506621  0.49126413  0.18032742    -0.02300
C369        C  0.04977796  0.27089871  0.28157490    -0.08900
C370        C  0.04797625  0.29578012  0.26216044     0.07300
C371        C  0.02313017  0.29999487  0.23968454    -0.02700
C372        C  0.00101071  0.27929717  0.23663074    -0.07100
C373        C  0.00263992  0.25457901  0.25647267     0.06400
C374        C  0.02752240  0.25037699  0.27889314    -0.02200
Br375      Br  0.03321905  0.21633134  0.30468038    -0.01900
H376        H  0.06877589  0.26737988  0.29877608     0.10300
H377        H  0.48195640  0.28290679  0.21957857     0.08300
Br378      Br  0.01683119  0.33487364  0.21578046    -0.02300
C379        C  0.05274803  0.26523509  0.00919279    -0.08900
C380        C  0.04627024  0.29557294  0.01686122     0.07300
C381        C  0.01682572  0.30557116  0.51755862    -0.02700
C382        C  0.99434941  0.28537854  0.51093556    -0.07100
C383        C  0.00083363  0.25507616  0.00337431     0.06400
C384        C  0.03022909  0.24504369  0.00264900    -0.02200
Br385      Br  0.04002119  0.20379311  0.99331063    -0.01900
H386        H  0.07531762  0.25733560  0.00824435     0.10300
H387        H  0.47176125  0.29324555  0.51201727     0.08300
Br388      Br  0.00662584  0.34670880  0.52757343    -0.02300
C389        C  0.40094054  0.16731701  0.38561842    -0.08900
C390        C  0.42586182  0.17665789  0.40641544     0.07300
C391        C  0.45249024  0.17637333  0.38404718    -0.02700
C392        C  0.45148330  0.17802237  0.34359017    -0.07100
C393        C  0.42470318  0.17647746  0.32433665     0.06400
C394        C  0.40077309  0.16546336  0.34437893    -0.02200
Br395      Br  0.37145714  0.14114954  0.31801395    -0.01900
H396        H  0.38223897  0.15970074  0.40113862     0.10300
H397        H  0.47188744  0.17859214  0.32667646     0.08300
Br398      Br  0.49019778  0.16719326  0.40372114    -0.02300
C399        C  0.41018129  0.20518281  0.10186152    -0.08900
C400        C  0.42677935  0.18430281  0.07566956     0.07300
C401        C  0.45110891  0.17067427  0.09159009    -0.02700
C402        C  0.45099940  0.16938896  0.13223378    -0.07100
C403        C  0.42908064  0.18434790  0.15756147     0.06400
C404        C  0.41291757  0.20681569  0.14274776    -0.02200
Br405      Br  0.39995853  0.24325638  0.17482482    -0.01900
H406        H  0.39740905  0.22209796  0.09080749     0.10300
H407        H  0.46925170  0.15866239  0.14426980     0.08300
Br408      Br  0.48745441  0.15859953  0.06244666    -0.02300
C409        C  0.42458575  0.17996511  0.95114390     0.30200
C410        C  0.42322666  0.18252065  0.53145254     0.30200
C411        C  0.43020069  0.15049553  0.96624201    -0.06000
C412        C  0.44632032  0.20100806  0.97329509    -0.06800
C413        C  0.39517287  0.19170336  0.97285444    -0.06600
C414        C  0.42855956  0.15143147  0.50711202    -0.06000
C415        C  0.44579997  0.20170607  0.51410257    -0.06700
C416        C  0.39406003  0.19301292  0.51423685    -0.06600
C417        C  0.43882935  0.12416311  0.51468710    -0.32000
N418        N  0.44915111  0.10780667  0.98008296     0.14500
C419        C  0.44377511  0.12381768  0.95028822    -0.32000
H420        H  0.45227979  0.11802031  0.91991083     0.16400
C421        C  0.46520709  0.22249155  0.52969285    -0.31000
N422        N  0.47754014  0.23453281  0.49931203     0.13200
C423        C  0.46569928  0.22220970  0.96475587    -0.31000
C424        C  0.36622407  0.20489547  0.52737772    -0.31300
N425        N  0.35115710  0.21134697  0.49542359     0.13700
H426        H  0.35729509  0.20819704  0.55768039     0.16300
C427        C  0.36888108  0.20351090  0.96231238    -0.31300
H428        H  0.36308941  0.20663349  0.93248617     0.16300
H429        H  0.47094812  0.22818302  0.93570113     0.16300
H430        H  0.44252954  0.11824867  0.54389013     0.16400
H431        H  0.47001731  0.22847855  0.56085088     0.16300
C432        C  0.42758503  0.18076794  0.70093575     0.30200
C433        C  0.42484195  0.17935096  0.78073120     0.30200
C434        C  0.43658400  0.15097089  0.71361089    -0.06000
C435        C  0.44688285  0.20247972  0.72586073    -0.06800
C436        C  0.39705281  0.18614905  0.72152062    -0.06600
C437        C  0.43471602  0.15056817  0.75450956    -0.06000
C438        C  0.44559034  0.20211209  0.76657962    -0.06700
C439        C  0.39578758  0.18714269  0.76261810    -0.06600
C440        C  0.44617640  0.12412263  0.76170181    -0.32000
N441        N  0.45535911  0.10823233  0.72648908     0.14500
C442        C  0.44962380  0.12426308  0.69685418    -0.32000
H443        H  0.45664703  0.11760736  0.66603894     0.16400
C444        C  0.46541270  0.22242331  0.78283089    -0.31000
N445        N  0.47931231  0.23388677  0.75276316     0.13200
C446        C  0.46776813  0.22206976  0.71784578    -0.31000
C447        C  0.36773369  0.19685250  0.77563271    -0.31300
N448        N  0.35174427  0.19923733  0.74315466     0.13700
H449        H  0.35996982  0.20313960  0.80628862     0.16300
C450        C  0.36926107  0.19188563  0.71006445    -0.31300
H451        H  0.36261142  0.19297434  0.67994528     0.16300
H452        H  0.47473829  0.22668400  0.68863247     0.16300
H453        H  0.45073169  0.11831048  0.79076985     0.16400
H454        H  0.46967435  0.22831440  0.81415135     0.16300
C455        C  0.37661673  0.42516881  0.53836808     0.30200
C456        C  0.37158427  0.42617796  0.95996506     0.30200
C457        C  0.36470826  0.39739179  0.51554290    -0.06000
C458        C  0.35529364  0.44896760  0.52751387    -0.06800
C459        C  0.40498204  0.42967943  0.51637805    -0.06600
C460        C  0.36136044  0.39727039  0.97457148    -0.06000
C461        C  0.35262506  0.44924018  0.98671728    -0.06700
C462        C  0.40266009  0.43139065  0.97586482    -0.06600
C463        C  0.33660116  0.38030662  0.96542550    -0.32000
N464        N  0.32620367  0.37038177  0.49897416     0.14500
C465        C  0.34297121  0.38134487  0.52912963    -0.32000
H466        H  0.33829833  0.37980177  0.56027444     0.16400
C467        C  0.32516030  0.46060042  0.98168240    -0.31000
N468        N  0.31213495  0.46943258  0.51783962     0.13200
C469        C  0.32933657  0.46065608  0.54576172    -0.31000
C470        C  0.42280944  0.45231062  0.96793088    -0.31300
N471        N  0.43726936  0.46177361  0.50153461     0.13700
H472        H  0.42446903  0.46216255  0.94089729     0.16300
C473        C  0.42661905  0.44789228  0.53079810    -0.31300
H474        H  0.43131426  0.45380684  0.56202696     0.16300
H475        H  0.32271842  0.46136408  0.57683552     0.16300
H476        H  0.32560696  0.37773219  0.93737556     0.16400
H477        H  0.31509396  0.46188491  0.95348580     0.16300
C478        C  0.37214307  0.42353551  0.78781737     0.30200
C479        C  0.37544367  0.42419860  0.70819111     0.30200
C480        C  0.36972627  0.39340134  0.76197519    -0.06000
C481        C  0.34737645  0.44124855  0.77140809    -0.06800
C482        C  0.39987634  0.43615395  0.77189772    -0.06600
C483        C  0.37179556  0.39346034  0.72047653    -0.06000
C484        C  0.34889021  0.44118429  0.73039793    -0.06700
C485        C  0.40169205  0.43625290  0.73123124    -0.06600
C486        C  0.35496152  0.37052247  0.70347220    -0.32000
N487        N  0.34360888  0.35678023  0.73262611     0.14500
C488        C  0.35141424  0.37102853  0.76811332    -0.32000
H489        H  0.34265765  0.36674318  0.79668755     0.16400
C490        C  0.32555003  0.45813990  0.72108123    -0.31000
N491        N  0.31109275  0.46991487  0.75546066     0.13200
C492        C  0.32351129  0.45895325  0.78624469    -0.31000
C493        C  0.42336517  0.45519026  0.72372617    -0.31300
N494        N  0.43387596  0.46733050  0.75897767     0.13700
H495        H  0.42969155  0.46124165  0.69506408     0.16300
C496        C  0.41973253  0.45592198  0.78865189    -0.31300
H497        H  0.42226838  0.46303386  0.82021892     0.16300
H498        H  0.31644288  0.46479672  0.81722403     0.16300
H499        H  0.34893044  0.36601281  0.67260176     0.16400
H500        H  0.32060363  0.46334607  0.69185811     0.16300
O501        O  0.07684556  0.06476946  0.98308130    -0.80700
O502        O  0.46605203  0.99982774  0.98135385    -0.65400
O503        O  0.02420607  0.05496001  0.51496698    -1.12000
C504        C  0.07234633  0.46701207  0.54685156     1.06200
O505        O  0.46912789  0.49007159  0.54267722    -0.78600
O506        O  0.01034660  0.49658581  0.60163877    -0.66100
Ni507      Ni  0.03805982  0.08023370  0.97894939     1.34900
C508        C  0.02422487  0.01982819  0.61458206     0.85000
O509        O  0.46850277  0.06016011  0.98382656    -0.79100
O510        O  0.99916269  0.09684675  0.97605796    -0.89400
C511        C  0.45782578  0.48480968  0.50853591     0.84500
O512        O  0.03552402  0.05846485  0.92514286    -0.67600
O513        O  0.04640699  0.45776878  0.55113590    -0.86900
C514        C  0.02262516  0.03496394  0.91212525     0.85400
C515        C  0.47338241  0.08691543  0.97914480     1.06900
H516        H  0.03008206  0.48712035  0.98828859     0.38700
O517        O  0.02212683  0.49953765  0.51189442    -1.09500
O518        O  0.03834897  0.03377983  0.58961791    -0.66200
Ni519      Ni  0.05157871  0.02597008  0.53128219     1.26300
O520        O  0.00881461  0.02079709  0.93708873    -0.66400
O521        O  0.07776883  0.49372969  0.54188963    -0.78700
C522        C  0.08900446  0.06936173  0.51664408     0.84700
O523        O  0.08096128  0.05493837  0.54432672    -0.65900
Ni524      Ni  0.00775804  0.47456843  0.54790150     1.27400
Ni525      Ni  0.49510406  0.02867381  0.49513967     1.26100
H526        H  0.01624831  0.06720757  0.53870832     0.39300
O527        O  0.08029318  0.05929129  0.72866268    -0.80700
O528        O  0.46520743  0.00148443  0.73480296    -0.65400
O529        O  0.02626932  0.05424274  0.76263885    -1.12000
C530        C  0.06892340  0.46725651  0.80239936     1.06200
O531        O  0.46737469  0.49465304  0.79806638    -0.78600
O532        O  0.00933208  0.50051299  0.85479055    -0.66100
Ni533      Ni  0.04220521  0.07676073  0.72469373     1.34900
C534        C  0.02375923  0.02352893  0.86626323     0.85000
O535        O  0.47164138  0.06036458  0.73065560    -0.79100
O536        O  0.00443080  0.09508705  0.72146972    -0.89400
C537        C  0.45577966  0.48901178  0.76434179     0.84500
O538        O  0.03754919  0.05391434  0.67245320    -0.67600
O539        O  0.04270600  0.45890663  0.80688146    -0.86900
C540        C  0.02340224  0.03102917  0.66056225     0.85400
C541        C  0.47821823  0.08638811  0.72482460     1.06900
H542        H  0.02854879  0.48572316  0.74195751     0.38700
O543        O  0.02114186  0.49941845  0.76469341    -1.07500
O544        O  0.03835257  0.03630402  0.84030457    -0.66200
Ni545      Ni  0.05139758  0.02524144  0.78179430     1.26300
O546        O  0.00921113  0.01788750  0.68650354    -0.66400
O547        O  0.07567296  0.49310837  0.79605782    -0.78700
C548        C  0.09267879  0.06360879  0.76204467     0.84700
O549        O  0.08245742  0.05223417  0.79155627    -0.65900
Ni550      Ni  0.00509356  0.47716922  0.80296562     1.27400
Ni551      Ni  0.49594184  0.02883455  0.74491827     1.26100
H552        H  0.01879722  0.06781058  0.78547879     0.39300
C553        C  0.12214626  0.37052504  0.99143257     0.30200
C554        C  0.12079685  0.37212018  0.57161970     0.30200
C555        C  0.11536300  0.40120985  0.51633828    -0.06000
C556        C  0.10047563  0.35010548  0.50808236    -0.06800
C557        C  0.15166812  0.36116952  0.50859725    -0.06600
C558        C  0.11379945  0.40158669  0.55707303    -0.06000
C559        C  0.09997361  0.35022987  0.54882907    -0.06700
C560        C  0.15065725  0.36191866  0.54985198    -0.06600
C561        C  0.10099981  0.42845485  0.57391786    -0.32000
N562        N  0.09592999  0.44519788  0.54475491     0.14500
C563        C  0.10542201  0.42886044  0.00960717    -0.32000
H564        H  0.10173109  0.43525134  0.98065983     0.16400
C565        C  0.08121024  0.32820930  0.55646324    -0.31000
N566        N  0.06955369  0.31616614  0.52158642     0.13200
C567        C  0.08156190  0.32906164  0.99178727    -0.31000
C568        C  0.17722334  0.35026675  0.55987202    -0.31300
N569        N  0.19481804  0.34300871  0.52646246     0.13700
H570        H  0.18312170  0.34652942  0.58942383     0.16300
C571        C  0.17956553  0.34987845  0.99498551    -0.31300
H572        H  0.18835452  0.34698091  0.96462707     0.16300
H573        H  0.07669611  0.32364039  0.96056290     0.16300
H574        H  0.09299498  0.43404793  0.60457190     0.16400
H575        H  0.07609070  0.32162614  0.58519234     0.16300
C576        C  0.12224428  0.37495515  0.74244797     0.30200
C577        C  0.11960185  0.37187653  0.82186422     0.30200
C578        C  0.11133401  0.40294088  0.76955402    -0.06000
C579        C  0.10268549  0.35092640  0.75554565    -0.06800
C580        C  0.15160631  0.36804760  0.76042922    -0.06600
C581        C  0.10965413  0.40166441  0.81021528    -0.06000
C582        C  0.10121952  0.34978747  0.79603715    -0.06700
C583        C  0.15033606  0.36797059  0.80143236    -0.06600
C584        C  0.09715640  0.42825655  0.82823362    -0.32000
N585        N  0.09146310  0.44507597  0.79951324     0.14500
C586        C  0.10020399  0.42981563  0.76366808    -0.32000
H587        H  0.09587583  0.43655505  0.73505935     0.16400
C588        C  0.08131709  0.32890788  0.80277698    -0.31000
N589        N  0.07069473  0.31706707  0.76723166     0.13200
C590        C  0.08424714  0.32972078  0.73807289    -0.31000
C591        C  0.17817296  0.36204017  0.81250210    -0.31300
N592        N  0.19568551  0.35544493  0.77921249     0.13700
H593        H  0.18478676  0.35994034  0.84234782     0.16300
C594        C  0.17970015  0.35882642  0.74705586    -0.31300
H595        H  0.18730675  0.35292681  0.71627509     0.16300
H596        H  0.08056043  0.32408443  0.70654439     0.16300
H597        H  0.09076133  0.43448929  0.85936537     0.16400
H598        H  0.07431920  0.32344247  0.83153457     0.16300
C599        C  0.17881061  0.12190429  0.56374917     0.30200
C600        C  0.17860097  0.11392440  0.98312855     0.30200
C601        C  0.19471649  0.14539486  0.54354053    -0.06000
C602        C  0.19259159  0.09270394  0.54281890    -0.06800
C603        C  0.14794516  0.11972799  0.54596466    -0.06600
C604        C  0.19493681  0.14024165  0.00264682    -0.06000
C605        C  0.19362203  0.08875672  0.00122958    -0.06700
C606        C  0.14824701  0.11726439  0.00405885    -0.06600
C607        C  0.21444542  0.15842816  0.98836583    -0.32000
N608        N  0.22554068  0.17618712  0.51927396     0.14500
C609        C  0.21350069  0.16870539  0.55364308    -0.32000
H610        H  0.21881851  0.17855018  0.58343852     0.16400
C611        C  0.21136722  0.06409299  0.98924880    -0.31000
N612        N  0.21817430  0.05179697  0.52199380     0.13200
C613        C  0.20647841  0.06900341  0.55476477    -0.31000
C614        C  0.12489870  0.10076805  0.99105947    -0.31300
N615        N  0.11138336  0.09083255  0.52197039     0.13700
H616        H  0.12108444  0.09249315  0.96012193     0.16300
C617        C  0.12524426  0.10169547  0.55547741    -0.31300
H618        H  0.12169533  0.09408018  0.58392767     0.16300
H619        H  0.20974724  0.06549675  0.58522136     0.16300
H620        H  0.22035656  0.15854433  0.95719374     0.16400
H621        H  0.22060585  0.05684838  0.95955504     0.16300
C622        C  0.17750770  0.12470186  0.81507364     0.30200
C623        C  0.17930021  0.12514157  0.73516462     0.30200
C624        C  0.18169428  0.15506468  0.80222464    -0.06000
C625        C  0.20298742  0.10662643  0.79172278    -0.06800
C626        C  0.15059484  0.11280993  0.79290784    -0.06600
C627        C  0.18181753  0.15515836  0.76097746    -0.06000
C628        C  0.20353347  0.10611784  0.75056424    -0.06700
C629        C  0.15173135  0.11265106  0.75202526    -0.06600
C630        C  0.19642019  0.17958140  0.75324016    -0.32000
N631        N  0.20507615  0.19437021  0.78800980     0.14500
C632        C  0.19793260  0.17893078  0.81768379    -0.32000
H633        H  0.20562665  0.18364107  0.84776185     0.16400
C634        C  0.22165127  0.08247411  0.73441761    -0.31000
N635        N  0.23331150  0.07028049  0.76470482     0.13200
C636        C  0.22253636  0.08518170  0.79971554    -0.31000
C637        C  0.13119512  0.09333165  0.73618147    -0.31300
N638        N  0.11693177  0.08272323  0.76646242     0.13700
H639        H  0.12771208  0.08654191  0.70476559     0.16300
C640        C  0.12880954  0.09412868  0.80122361    -0.31300
H641        H  0.12296755  0.08814371  0.83009812     0.16300
H642        H  0.22721720  0.07925087  0.82863328     0.16300
H643        H  0.20248697  0.18490630  0.72405541     0.16400
H644        H  0.22505128  0.07379947  0.70311888     0.16300
O645        O  0.28642574  0.25130320  0.90807214    -0.80700
O646        O  0.28024674  0.25833552  0.59435177    -0.65400
O647        O  0.25828240  0.25861041  0.98519355    -1.12000
C648        C  0.30300886  0.35085636  0.50562934     1.06200
O649        O  0.25903811  0.30205252  0.61150397    -0.78600
O650        O  0.23780292  0.33515890  0.55892735    -0.66100
Ni651      Ni  0.27023217  0.22672742  0.94459664     1.34900
C652        C  0.22463238  0.33096003  0.52630514     0.85000
O653        O  0.25020727  0.21983488  0.54160928    -0.79100
O654        O  0.25366364  0.19989408  0.97676171    -0.89400
C655        C  0.27236851  0.27976406  0.62128495     0.84500
O656        O  0.30901805  0.21947065  0.96110756    -0.67600
O657        O  0.29422158  0.35150452  0.54201622    -0.86900
C658        C  0.32119993  0.22289102  0.49452382     0.85400
C659        C  0.24462183  0.19965045  0.51284973     1.06900
H660        H  0.30748060  0.29101306  0.53341138     0.38700
O661        O  0.28640210  0.29345408  0.53402773    -1.09500
O662        O  0.23676347  0.31654734  0.99442779    -0.66200
Ni663      Ni  0.27483423  0.29568644  0.98030645     1.26300
O664        O  0.30787531  0.23593739  0.52632247    -0.66400
O665        O  0.29477068  0.33185968  0.97707776    -0.78700
C666        C  0.27238659  0.27319444  0.89839947     0.84700
O667        O  0.26359280  0.29411704  0.92545584    -0.65900
Ni668      Ni  0.27624131  0.32580339  0.57468565     1.27400
Ni669      Ni  0.26954839  0.25650977  0.53913279     1.26100
H670        H  0.23717834  0.26060843  0.98514504     0.39300
O671        O  0.31823733  0.22645346  0.71256213    -0.80700
O672        O  0.23929949  0.33348001  0.74771098    -0.65400
O673        O  0.30091307  0.27761365  0.75678305    -1.12000
C674        C  0.22100139  0.22075173  0.79116808     1.06200
O675        O  0.22782639  0.32574619  0.80806817    -0.78600
O676        O  0.23882633  0.28338196  0.85083276    -0.66100
Ni677      Ni  0.32860609  0.26635985  0.71401179     1.34900
C678        C  0.26382759  0.27264170  0.85626497     0.85000
O679        O  0.29922595  0.33446341  0.73997384    -0.79100
O680        O  0.33930863  0.30666497  0.71552725    -0.89400
C681        C  0.22256112  0.33879582  0.77866404     0.84500
O682        O  0.30560560  0.26770400  0.66833367    -0.67600
O683        O  0.20657979  0.24516910  0.80086361    -0.86900
C684        C  0.28140666  0.28030493  0.66333802     0.85400
C685        C  0.32618828  0.33140446  0.72806321     1.06900
H686        H  0.23563586  0.26771401  0.73872765     0.38700
O687        O  0.24577948  0.27535560  0.76238870    -1.09500
O688        O  0.28040788  0.25991750  0.82744076    -0.66200
Ni689      Ni  0.27562342  0.24756833  0.77025365     1.26300
O690        O  0.26617635  0.29472293  0.69240706    -0.66400
O691        O  0.24831728  0.21860899  0.78135944    -0.78700
C692        C  0.32426555  0.21466167  0.74282653     0.84700
O693        O  0.30772954  0.22050666  0.77384236    -0.65900
Ni694      Ni  0.21717420  0.28571914  0.80425074     1.27400
Ni695      Ni  0.27123588  0.30574708  0.74993876     1.26100
H696        H  0.31164479  0.28516226  0.78001964     0.39300
C697        C  0.17692784  0.09379743  0.86955308    -0.08900
C698        C  0.17463714  0.12214678  0.85875414     0.07300
C699        C  0.16527237  0.14550755  0.88852736    -0.02700
C700        C  0.16670560  0.14151821  0.92804053    -0.07100
C701        C  0.17580386  0.11436661  0.93896710     0.06400
C702        C  0.17662730  0.08952929  0.90922372    -0.02200
Br703      Br  0.16901461  0.05029378  0.91856454    -0.01900
H704        H  0.17756002  0.07460050  0.84679549     0.10300
H705        H  0.16021420  0.15987536  0.95076371     0.08300
Br706      Br  0.14496264  0.18097295  0.87937684    -0.02300
C707        C  0.15518372  0.13692729  0.63204628    -0.08900
C708        C  0.18034844  0.12706498  0.60858154     0.07300
C709        C  0.20686592  0.12352976  0.62801045    -0.02700
C710        C  0.20607185  0.12321370  0.66889939    -0.07100
C711        C  0.17960276  0.12758622  0.69132969     0.06400
C712        C  0.15493747  0.13833663  0.67324350    -0.02200
Br713      Br  0.12125156  0.15747260  0.70250468    -0.01900
H714        H  0.13569330  0.14424867  0.61862521     0.10300
H715        H  0.22653260  0.12043728  0.68320466     0.08300
Br716      Br  0.24511162  0.11997698  0.60188378    -0.02300
C717        C  0.09502327  0.38226520  0.88989791    -0.08900
C718        C  0.11767285  0.36797049  0.86511283     0.07300
C719        C  0.13427513  0.34606720  0.88036875    -0.02700
C720        C  0.13621612  0.34776756  0.92138652    -0.07100
C721        C  0.11917761  0.36864418  0.94713467     0.06400
C722        C  0.09473880  0.38151702  0.93067225    -0.02200
Br723      Br  0.05807370  0.39275802  0.95935593    -0.01900
H724        H  0.07653869  0.39227573  0.87735964     0.10300
H725        H  0.14883871  0.33093012  0.93281952     0.08300
Br726      Br  0.14901553  0.31016264  0.84860722    -0.02300
C727        C  0.14451658  0.38618708  0.63672803    -0.08900
C728        C  0.11977717  0.37538570  0.61642727     0.07300
C729        C  0.09336439  0.37508975  0.63926102    -0.02700
C730        C  0.09477536  0.37538535  0.68010808    -0.07100
C731        C  0.12164106  0.37818620  0.69897863     0.06400
C732        C  0.14505329  0.38912189  0.67807598    -0.02200
Br733      Br  0.17377017  0.41470687  0.70340907    -0.01900
H734        H  0.16278950  0.39407725  0.62065420     0.10300
H735        H  0.07459711  0.37450753  0.69743009     0.08300
Br736      Br  0.05478593  0.37996575  0.61950995    -0.02300
C737        C  0.26484403  0.49226594  0.73789474    -0.08900
C738        C  0.29085021  0.99557261  0.75957638     0.07300
C739        C  0.29788840  0.02294281  0.78120424    -0.02700
C740        C  0.27878714  0.04720503  0.78211668    -0.07100
C741        C  0.25270733  0.04495547  0.76146944     0.06400
C742        C  0.24541340  0.01758595  0.74014216    -0.02200
Br743      Br  0.20863960  0.01194744  0.71480982    -0.01900
H744        H  0.25937603  0.47130469  0.72121187     0.10300
H745        H  0.28440903  0.06816758  0.79867297     0.08300
Br746      Br  0.33413417  0.02908639  0.80781298    -0.02300
C747        C  0.26255196  0.03448392  0.55010113    -0.08900
C748        C  0.23987187  0.02904791  0.52338870     0.07300
C749        C  0.23941203  0.00190824  0.49814942    -0.02700
C750        C  0.26265895  0.48133888  0.49908523    -0.07100
C751        C  0.28580195  0.98750283  0.52400144     0.06400
C752        C  0.28545772  0.01412813  0.55063871    -0.02200
Br753      Br  0.31691330  0.02584745  0.58525974    -0.01900
H754        H  0.26313982  0.05537240  0.56944407     0.10300
H755        H  0.26282770  0.46083530  0.47873324     0.08300
Br756      Br  0.20807951  0.99159086  0.46303792    -0.02300
C757        C  0.36608194  0.45034939  0.85706540    -0.08900
C758        C  0.37256147  0.42370743  0.83226930     0.07300
C759        C  0.38454641  0.40017216  0.84976673    -0.02700
C760        C  0.38192500  0.40108774  0.89086291    -0.07100
C761        C  0.37130361  0.42654319  0.91563948     0.06400
C762        C  0.36671274  0.45245578  0.89824271    -0.02200
Br763      Br  0.36642542  0.49213496  0.92614420    -0.01900
H764        H  0.36259256  0.47028744  0.84422998     0.10300
H765        H  0.39019307  0.38246273  0.90381400     0.08300
Br766      Br  0.41022648  0.36951714  0.82188248    -0.02300
C767        C  0.38944070  0.40048296  0.63862086    -0.08900
C768        C  0.37938665  0.42574525  0.66445257     0.07300
C769        C  0.37680837  0.45259660  0.64898527    -0.02700
C770        C  0.37689680  0.45187683  0.60808159    -0.07100
C771        C  0.38064455  0.42520104  0.58218072     0.06400
C772        C  0.39079534  0.40014601  0.59770109    -0.02200
Br773      Br  0.40796821  0.36542350  0.56580548    -0.01900
H774        H  0.39682210  0.38093212  0.65008527     0.10300
H775        H  0.37419304  0.47245287  0.59650370     0.08300
Br776      Br  0.37506747  0.49126415  0.68032709    -0.02300
C777        C  0.04978009  0.27089974  0.78157385    -0.08900
C778        C  0.04797828  0.29578105  0.76215922     0.07300
C779        C  0.02313227  0.29999550  0.73968306    -0.02700
C780        C  0.00101285  0.27929772  0.73662957    -0.07100
C781        C  0.00264210  0.25457975  0.75647190     0.06400
C782        C  0.02752467  0.25037789  0.77889223    -0.02200
Br783      Br  0.03322160  0.21633232  0.80467948    -0.01900
H784        H  0.06877803  0.26738108  0.79877510     0.10300
H785        H  0.48195867  0.28290734  0.71957753     0.08300
Br786      Br  0.01683317  0.33487403  0.71577837    -0.02300
C787        C  0.05274985  0.26523632  0.50914348    -0.08900
C788        C  0.04627018  0.29557264  0.51686287     0.07300
C789        C  0.01682831  0.30557215  0.01750801    -0.02700
C790        C  0.99435252  0.28537899  0.01088455    -0.07100
C791        C  0.00083246  0.25507716  0.50337435     0.06400
C792        C  0.03023047  0.24504538  0.50259973    -0.02200
Br793      Br  0.04002544  0.20379597  0.49320317    -0.01900
H794        H  0.07532117  0.25733766  0.50815780     0.10300
H795        H  0.47176547  0.29324682  0.01193798     0.08300
Br796      Br  0.00663078  0.34671138  0.02746631    -0.02300
C797        C  0.40094149  0.16731779  0.88561756    -0.08900
C798        C  0.42586238  0.17665904  0.90641524     0.07300
C799        C  0.45249113  0.17637481  0.88404773    -0.02700
C800        C  0.45148473  0.17802373  0.84359064    -0.07100
C801        C  0.42470491  0.17647834  0.82433635     0.06400
C802        C  0.40077470  0.16546391  0.84437801    -0.02200
Br803      Br  0.37145935  0.14114964  0.81801215    -0.01900
H804        H  0.38223977  0.15970139  0.90113732     0.10300
H805        H  0.47188907  0.17859389  0.82667752     0.08300
Br806      Br  0.49019873  0.16719635  0.90372324    -0.02300
C807        C  0.41018212  0.20518376  0.60186203    -0.08900
C808        C  0.42677994  0.18430376  0.57566982     0.07300
C809        C  0.45111007  0.17067564  0.59158967    -0.02700
C810        C  0.45100107  0.16939008  0.63223328    -0.07100
C811        C  0.42908256  0.18434905  0.65756142     0.06400
C812        C  0.41291940  0.20681696  0.64274814    -0.02200
Br813      Br  0.39996163  0.24325799  0.67482540    -0.01900
H814        H  0.39740945  0.22209871  0.59080825     0.10300
H815        H  0.46925351  0.15866345  0.64426888     0.08300
Br816      Br  0.48745561  0.15860239  0.56244515    -0.02300
C817        C  0.42457508  0.67927573  0.45181281     0.30200
C818        C  0.42254176  0.68067312  0.03191241     0.30200
C819        C  0.42913773  0.64937934  0.46612423    -0.06000
C820        C  0.44674325  0.69929990  0.47465063    -0.06800
C821        C  0.39533161  0.69156477  0.47343541    -0.06600
C822        C  0.42696208  0.64970752  0.00690684    -0.06000
C823        C  0.44594449  0.69936668  0.01526102    -0.06700
C824        C  0.39385724  0.69230379  0.01471139    -0.06600
C825        C  0.43678531  0.62217416  0.01392190    -0.32000
N826        N  0.44797134  0.60649091  0.47934741     0.14500
C827        C  0.44322035  0.62303873  0.44996959    -0.32000
H828        H  0.45263252  0.61794656  0.41996918     0.16400
C829        C  0.46560827  0.71965300  0.03152103    -0.31000
N830        N  0.47880411  0.73172967  0.00166371     0.13200
C831        C  0.46638487  0.72045313  0.46698796    -0.31000
C832        C  0.36602830  0.70427317  0.02767053    -0.31300
N833        N  0.35130636  0.71124586  0.99568548     0.13700
H834        H  0.35683762  0.70711216  0.05783441     0.16300
C835        C  0.36925690  0.70369630  0.46275393    -0.31300
H836        H  0.36369328  0.70703186  0.43292212     0.16300
H837        H  0.47135472  0.72716538  0.43829081     0.16300
H838        H  0.43986980  0.61575334  0.04298741     0.16400
H839        H  0.46936969  0.72579430  0.06297025     0.16300
C840        C  0.42802013  0.68027559  0.20163394     0.30200
C841        C  0.42510179  0.67922026  0.28145795     0.30200
C842        C  0.43677620  0.65051207  0.21457129    -0.06000
C843        C  0.44742250  0.70200221  0.22644220    -0.06800
C844        C  0.39748803  0.68588106  0.22208482    -0.06600
C845        C  0.43492300  0.65030609  0.25549384    -0.06000
C846        C  0.44598655  0.70181709  0.26719789    -0.06700
C847        C  0.39613439  0.68706814  0.26319239    -0.06600
C848        C  0.44634948  0.62387963  0.26287358    -0.32000
N849        N  0.45534192  0.60779218  0.22770014     0.14500
C850        C  0.44950542  0.62363616  0.19795308    -0.32000
H851        H  0.45625602  0.61664806  0.16711594     0.16400
C852        C  0.46571585  0.72220945  0.28348082    -0.31000
N853        N  0.47977118  0.73353540  0.25343516     0.13200
C854        C  0.46837145  0.72157226  0.21845418    -0.31000
C855        C  0.36810067  0.69693990  0.27603279    -0.31300
N856        N  0.35221265  0.69923306  0.24343598     0.13700
H857        H  0.36028145  0.70337334  0.30663912     0.16300
C858        C  0.36976474  0.69167149  0.21044566    -0.31300
H859        H  0.36318476  0.69263622  0.18026631     0.16300
H860        H  0.47543010  0.72612076  0.18924428     0.16300
H861        H  0.45099838  0.61820391  0.29198457     0.16400
H862        H  0.46977904  0.72829724  0.31483018     0.16300
C863        C  0.37648799  0.92536102  0.03848581     0.30200
C864        C  0.37160452  0.92632354  0.46004733     0.30200
C865        C  0.36493105  0.89740478  0.01557465    -0.06000
C866        C  0.35491003  0.94889260  0.02750348    -0.06800
C867        C  0.40482894  0.93026873  0.01666153    -0.06600
C868        C  0.36161564  0.89727966  0.47457769    -0.06000
C869        C  0.35234631  0.94915153  0.48670584    -0.06700
C870        C  0.40258528  0.93190736  0.47613944    -0.06600
C871        C  0.33691046  0.88019651  0.46540163    -0.32000
N872        N  0.32653065  0.87017226  0.99890399     0.14500
C873        C  0.34327576  0.88117426  0.02907633    -0.32000
H874        H  0.33857692  0.87960823  0.06020726     0.16400
C875        C  0.32487972  0.96041334  0.48147608    -0.31000
N876        N  0.31172652  0.96919021  0.01756371     0.13200
C877        C  0.32886758  0.96046259  0.04560320    -0.31000
C878        C  0.42267884  0.95290588  0.46821487    -0.31300
N879        N  0.43706254  0.96249152  0.00185600     0.13700
H880        H  0.42445328  0.96261362  0.44107489     0.16300
C881        C  0.42633338  0.94865876  0.03115072    -0.31300
H882        H  0.43099284  0.95459303  0.06238783     0.16300
H883        H  0.32221263  0.96125157  0.07667855     0.16300
H884        H  0.32590048  0.87765665  0.43736459     0.16400
H885        H  0.31493831  0.96175810  0.45321139     0.16300
C886        C  0.37197967  0.92405006  0.28799853     0.30200
C887        C  0.37512336  0.92472169  0.20837669     0.30200
C888        C  0.36936892  0.89391666  0.26214381    -0.06000
C889        C  0.34725623  0.94191914  0.27172744    -0.06800
C890        C  0.39975294  0.93656193  0.27195736    -0.06600
C891        C  0.37133580  0.89400415  0.22068181    -0.06000
C892        C  0.34869535  0.94188221  0.23071492    -0.06700
C893        C  0.40150658  0.93661986  0.23127707    -0.06600
C894        C  0.35459237  0.87098743  0.20367053    -0.32000
N895        N  0.34342166  0.85709582  0.23280470     0.14500
C896        C  0.35121534  0.87139707  0.26830577    -0.32000
H897        H  0.34260921  0.86699916  0.29690036     0.16400
C898        C  0.32544564  0.95904504  0.22154810    -0.31000
N899        N  0.31109414  0.97085670  0.25600410     0.13200
C900        C  0.32351959  0.95978319  0.28669851    -0.31000
C901        C  0.42318941  0.95553867  0.22366523    -0.31300
N902        N  0.43372730  0.96777297  0.25885458     0.13700
H903        H  0.42950652  0.96150988  0.19495477     0.16300
C904        C  0.41959454  0.95641917  0.28859718    -0.31300
H905        H  0.42213132  0.96361532  0.32014406     0.16300
H906        H  0.31652079  0.96562479  0.31770414     0.16300
H907        H  0.34855432  0.86646390  0.17280389     0.16400
H908        H  0.32047649  0.96432179  0.19236862     0.16300
O909        O  0.07621768  0.56519109  0.48316835    -0.80700
O910        O  0.46608237  0.49914787  0.48105088    -0.65400
O911        O  0.02367807  0.55472211  0.01511268    -1.12000
C912        C  0.07266746  0.96722063  0.04708153     1.06200
O913        O  0.46936894  0.99035726  0.04279349    -0.78600
O914        O  0.01065891  0.99673562  0.10149201    -0.66100
Ni915      Ni  0.03722559  0.58019979  0.47915271     1.34900
C916        C  0.02401616  0.51961010  0.11476968     0.85000
O917        O  0.46794477  0.55925320  0.48353266    -0.79100
O918        O  0.99813408  0.59634082  0.47612469    -0.89400
C919        C  0.45786163  0.98535272  0.00876582     0.84500
O920        O  0.03495959  0.55842852  0.42533608    -0.67600
O921        O  0.04671965  0.95787119  0.05099799    -0.86900
C922        C  0.02241092  0.53472878  0.41230756     0.85400
C923        C  0.47248922  0.58603040  0.47884566     1.06900
H924        H  0.03023259  0.98739905  0.48813011     0.38700
O925        O  0.02232788  0.99979098  0.01178783    -1.09500
O926        O  0.03816917  0.53354084  0.08978463    -0.66200
Ni927      Ni  0.05125681  0.52584454  0.03132557     1.26300
O928        O  0.00876259  0.52039851  0.43720524    -0.66400
O929        O  0.07800780  0.99392230  0.04209779    -0.78700
C930        C  0.08853174  0.56956112  0.01663120     0.84700
O931        O  0.08059039  0.55498475  0.04423681    -0.65900
Ni932      Ni  0.00802138  0.97474763  0.04777968     1.27400
Ni933      Ni  0.49481030  0.52817985  0.99509719     1.26100
H934        H  0.01561253  0.56685716  0.03888098     0.39300
O935        O  0.08030104  0.55871560  0.22879078    -0.80700
O936        O  0.46535510  0.50103938  0.23507969    -0.65400
O937        O  0.02637288  0.55374077  0.26300949    -1.12000
C938        C  0.06891719  0.96759758  0.30162794     1.06200
O939        O  0.46732888  0.99509681  0.29779969    -0.78600
O940        O  0.00941516  0.00077578  0.35449974    -0.66100
Ni941      Ni  0.04222736  0.57631507  0.22513778     1.34900
C942        C  0.02370805  0.52323921  0.36651588     0.85000
O943        O  0.47170505  0.55988414  0.23128079    -0.79100
O944        O  0.00443505  0.59473016  0.22241478    -0.89400
C945        C  0.45566405  0.98945815  0.26411210     0.84500
O946        O  0.03736044  0.55367160  0.17276305    -0.67600
O947        O  0.04270297  0.95923107  0.30612746    -0.86900
C948        C  0.02328361  0.53074151  0.16082839     0.85400
C949        C  0.47823758  0.58598776  0.22583921     1.06900
H950        H  0.02846656  0.98624114  0.24158621     0.38700
O951        O  0.02104111  0.99991123  0.26433737    -1.07500
O952        O  0.03843258  0.53592235  0.34058983    -0.66200
Ni953      Ni  0.05150844  0.52476792  0.28211999     1.26300
O954        O  0.00924807  0.51748883  0.18680379    -0.66400
O955        O  0.07562580  0.99353126  0.29557855    -0.78700
C956        C  0.09278620  0.56309574  0.26209974     0.84700
O957        O  0.08263738  0.55175511  0.29170469    -0.65900
Ni958      Ni  0.00506509  0.97757304  0.30253001     1.27400
Ni959      Ni  0.49605222  0.52835140  0.24529873     1.26100
H960        H  0.01890662  0.56728437  0.28587790     0.39300
C961        C  0.12252275  0.87140787  0.49133096     0.30200
C962        C  0.12041080  0.87201827  0.07126533     0.30200
C963        C  0.11660610  0.90206553  0.01673602    -0.06000
C964        C  0.09989276  0.85156279  0.00727253    -0.06800
C965        C  0.15156688  0.86086741  0.00851282    -0.06600
C966        C  0.11452134  0.90195293  0.05737560    -0.06000
C967        C  0.09894406  0.85122857  0.04785436    -0.06700
C968        C  0.15019178  0.86104136  0.04961174    -0.06600
C969        C  0.10105163  0.92849499  0.07430138    -0.32000
N970        N  0.09642298  0.94560925  0.04543536     0.14500
C971        C  0.10683297  0.92985378  0.51037194    -0.32000
H972        H  0.10365921  0.93661740  0.48152359     0.16400
C973        C  0.07939225  0.82969823  0.05467744    -0.31000
N974        N  0.06729666  0.81858398  0.01959254     0.13200
C975        C  0.08054636  0.83120059  0.49030436    -0.31000
C976        C  0.17673151  0.84922139  0.05969197    -0.31300
N977        N  0.19459804  0.84238555  0.02642672     0.13700
H978        H  0.18252290  0.84535938  0.08923334     0.16300
C979        C  0.17954859  0.84972155  0.49503504    -0.31300
H980        H  0.18861870  0.84750904  0.46485402     0.16300
H981        H  0.07697878  0.82547778  0.45873982     0.16300
H982        H  0.09222790  0.93353473  0.10462742     0.16400
H983        H  0.07421428  0.82267205  0.08311705     0.16300
C984        C  0.12206371  0.87486118  0.24214785     0.30200
C985        C  0.11985610  0.87244822  0.32168727     0.30200
C986        C  0.11120133  0.90303662  0.26895109    -0.06000
C987        C  0.10263454  0.85096117  0.25579353    -0.06800
C988        C  0.15156083  0.86812481  0.25999547    -0.06600
C989        C  0.10981337  0.90211437  0.30969382    -0.06000
C990        C  0.10136701  0.85014237  0.29635636    -0.06700
C991        C  0.15049204  0.86840929  0.30105455    -0.06600
C992        C  0.09750758  0.92887096  0.32750595    -0.32000
N993        N  0.09148676  0.94540003  0.29858662     0.14500
C994        C  0.09992583  0.92982163  0.26279993    -0.32000
H995        H  0.09534873  0.93630145  0.23411557     0.16400
C996        C  0.08163143  0.82919866  0.30356153    -0.31000
N997        N  0.07093877  0.81703095  0.26820551     0.13200
C998        C  0.08428112  0.82953926  0.23874313    -0.31000
C999        C  0.17833613  0.86237039  0.31199469    -0.31300
N1000       N  0.19566316  0.85531360  0.27861494     0.13700
H1001       H  0.18503884  0.86043867  0.34185365     0.16300
C1002       C  0.17955804  0.85855807  0.24649756    -0.31300
H1003       H  0.18697452  0.85228943  0.21569705     0.16300
H1004       H  0.08047054  0.82368400  0.20728056     0.16300
H1005       H  0.09149501  0.93545694  0.35869694     0.16400
H1006       H  0.07479024  0.82392086  0.33248295     0.16300
C1007       C  0.17881672  0.62173475  0.06330967     0.30200
C1008       C  0.17864042  0.61353885  0.48269406     0.30200
C1009       C  0.19475374  0.64514811  0.04298777    -0.06000
C1010       C  0.19257887  0.59249304  0.04253173    -0.06800
C1011       C  0.14794538  0.61953579  0.04552807    -0.06600
C1012       C  0.19500629  0.63990645  0.50209701    -0.06000
C1013       C  0.19364377  0.58842542  0.50094586    -0.06700
C1014       C  0.14826021  0.61693110  0.50361585    -0.06600
C1015       C  0.21456529  0.65807321  0.48778317    -0.32000
N1016       N  0.22564976  0.67587226  0.01868334     0.14500
C1017       C  0.21354911  0.66845060  0.05304861    -0.32000
H1018       H  0.21883270  0.67833855  0.08283792     0.16400
C1019       C  0.21147674  0.56378795  0.48914118    -0.31000
N1020       N  0.21832533  0.55165295  0.02201545     0.13200
C1021       C  0.20652437  0.56889985  0.05466424    -0.31000
C1022       C  0.12483266  0.60047831  0.49074152    -0.31300
N1023       N  0.11119966  0.59076827  0.02176814     0.13700
H1024       H  0.12096597  0.59214145  0.45983922     0.16300
C1025       C  0.12513731  0.60166460  0.05520040    -0.31300
H1026       H  0.12149487  0.59423314  0.08375287     0.16300
H1027       H  0.20977097  0.56550489  0.08516883     0.16300
H1028       H  0.22051442  0.65815099  0.45661421     0.16400
H1029       H  0.22071980  0.55645510  0.45946970     0.16300
C1030       C  0.17773327  0.62385135  0.31446522     0.30200
C1031       C  0.17921977  0.62445463  0.23456598     0.30200
C1032       C  0.18295415  0.65403294  0.30156843    -0.06000
C1033       C  0.20242180  0.60492479  0.29066695    -0.06800
C1034       C  0.15023440  0.61302769  0.29277450    -0.06600
C1035       C  0.18292615  0.65422558  0.26044087    -0.06000
C1036       C  0.20280603  0.60448983  0.24957076    -0.06700
C1037       C  0.15118867  0.61295502  0.25179834    -0.06600
C1038       C  0.19723784  0.67879632  0.25267876    -0.32000
N1039       N  0.20590139  0.69357914  0.28749030     0.14500
C1040       C  0.19899047  0.67799925  0.31714333    -0.32000
H1041       H  0.20653147  0.68281979  0.34728849     0.16400
C1042       C  0.22147134  0.58136061  0.23323255    -0.31000
N1043       N  0.23330727  0.56920040  0.26345739     0.13200
C1044       C  0.22235674  0.58382060  0.29854225    -0.31000
C1045       C  0.13091866  0.59322449  0.23610734    -0.31300
N1046       N  0.11689108  0.58243211  0.26640710     0.13700
H1047       H  0.12756656  0.58620290  0.20470730     0.16300
C1048       C  0.12881787  0.59391866  0.30106875    -0.31300
H1049       H  0.12337001  0.58761112  0.32987757     0.16300
H1050       H  0.22737222  0.57805372  0.32744245     0.16300
H1051       H  0.20295231  0.68434891  0.22350309     0.16400
H1052       H  0.22522823  0.57305033  0.20187666     0.16300
O1053       O  0.28667949  0.75125656  0.40788744    -0.80700
O1054       O  0.28030200  0.75801194  0.09413390    -0.65400
O1055       O  0.25843667  0.75839389  0.48491314    -1.12000
C1056       C  0.30324989  0.85067829  0.00554023     1.06200
O1057       O  0.25919252  0.80176845  0.11130920    -0.78600
O1058       O  0.23778607  0.83489462  0.05885344    -0.66100
Ni1059     Ni  0.27053571  0.72655670  0.44430436     1.34900
C1060       C  0.22456417  0.83059982  0.02625928     0.85000
O1061       O  0.25025949  0.71954152  0.04116868    -0.79100
O1062       O  0.25394759  0.69959648  0.47631727    -0.89400
C1063       C  0.27255367  0.77948608  0.12107102     0.84500
O1064       O  0.30933355  0.71941770  0.46099030    -0.67600
O1065       O  0.29439590  0.85133211  0.04191141    -0.86900
C1066       C  0.32136802  0.72275429  0.99452413     0.85400
C1067       C  0.24476752  0.69934704  0.01235248     1.06900
H1068       H  0.30757424  0.79077305  0.03324566     0.38700
O1069       O  0.28649632  0.79322498  0.03385551    -1.09500
O1070       O  0.23678819  0.81629723  0.49434530    -0.66200
Ni1071     Ni  0.27494346  0.79552547  0.48013409     1.26300
O1072       O  0.30791399  0.73569408  0.02625340    -0.66400
O1073       O  0.29493313  0.83172699  0.47697128    -0.78700
C1074       C  0.27252759  0.77307878  0.39818669     0.84700
O1075       O  0.26370431  0.79399499  0.42524796    -0.65900
Ni1076     Ni  0.27633613  0.82557990  0.07452299     1.27400
Ni1077     Ni  0.26961338  0.75625473  0.03888404     1.26100
H1078       H  0.23733292  0.76034631  0.48478215     0.39300
O1079       O  0.31888849  0.72646110  0.21253967    -0.80700
O1080       O  0.23921583  0.83304543  0.24729735    -0.65400
O1081       O  0.30111652  0.77757392  0.25665940    -1.12000
C1082       C  0.22157089  0.72013098  0.29070413     1.06200
O1083       O  0.22744496  0.82529633  0.30760479    -0.78600
O1084       O  0.23886199  0.78298811  0.35047917    -0.66100
Ni1085     Ni  0.32893208  0.76648527  0.21398091     1.34900
C1086       C  0.26394224  0.77244528  0.35601212     0.85000
O1087       O  0.29915028  0.83444833  0.23994715    -0.79100
O1088       O  0.33939644  0.80690182  0.21555784    -0.89400
C1089       C  0.22235527  0.83835572  0.27812865     0.84500
O1090       O  0.30594062  0.76761191  0.16817446    -0.67600
O1091       O  0.20694977  0.74444141  0.30031457    -0.86900
C1092       C  0.28167016  0.78007923  0.16312565     0.85400
C1093       C  0.32614858  0.83157492  0.22815787     1.06900
H1094       H  0.23595536  0.76725532  0.23830394     0.38700
O1095       O  0.24599312  0.77497365  0.26202422    -1.09500
O1096       O  0.28062125  0.75982036  0.32723580    -0.66200
Ni1097     Ni  0.27598589  0.74739052  0.27003858     1.26300
O1098       O  0.26638994  0.79445802  0.19216673    -0.66400
O1099       O  0.24890108  0.71822699  0.28104088    -0.78700
C1100       C  0.32480566  0.71471714  0.24290079     0.84700
O1101       O  0.30818937  0.72056218  0.27382013    -0.65900
Ni1102     Ni  0.21722901  0.78511031  0.30375014     1.27400
Ni1103     Ni  0.27129561  0.80552376  0.24971373     1.26100
H1104       H  0.31177290  0.78519167  0.27993544     0.39300
C1105       C  0.17727070  0.59306125  0.36916071    -0.08900
C1106       C  0.17510307  0.62137632  0.35818102     0.07300
C1107       C  0.16561380  0.64479346  0.38777972    -0.02700
C1108       C  0.16687765  0.64094014  0.42735958    -0.07100
C1109       C  0.17589900  0.61384172  0.43850297     0.06400
C1110       C  0.17678493  0.58892483  0.40890075    -0.02200
Br1111     Br  0.16887663  0.54981818  0.41856906    -0.01900
H1112       H  0.17782187  0.57379756  0.34652234     0.10300
H1113       H  0.16034839  0.65936690  0.44995211     0.08300
Br1114     Br  0.14556437  0.68027178  0.37817993    -0.02300
C1115       C  0.15523806  0.63681844  0.13159232    -0.08900
C1116       C  0.18039000  0.62695967  0.10812783     0.07300
C1117       C  0.20690170  0.62337132  0.12755526    -0.02700
C1118       C  0.20605259  0.62284855  0.16841539    -0.07100
C1119       C  0.17953179  0.62705684  0.19077289     0.06400
C1120       C  0.15495003  0.63804982  0.17275975    -0.02200
Br1121     Br  0.12141799  0.65746040  0.20205957    -0.01900
H1122       H  0.13579477  0.64427063  0.11819040     0.10300
H1123       H  0.22647855  0.61997540  0.18276863     0.08300
Br1124     Br  0.24515768  0.61993198  0.10141561    -0.02300
C1125       C  0.09582676  0.88366999  0.38980549    -0.08900
C1126       C  0.11815319  0.86887050  0.36499742     0.07300
C1127       C  0.13458517  0.84691938  0.38038610    -0.02700
C1128       C  0.13653509  0.84875853  0.42138830    -0.07100
C1129       C  0.11983479  0.86997510  0.44709209     0.06400
C1130       C  0.09569920  0.88338434  0.43061712    -0.02200
Br1131     Br  0.05942955  0.89635951  0.45927591    -0.01900
H1132       H  0.07738116  0.89374194  0.37728375     0.10300
H1133       H  0.14889247  0.83175508  0.43285027     0.08300
Br1134     Br  0.14930343  0.81088202  0.34889706    -0.02300
C1135       C  0.14411763  0.88551076  0.13625287    -0.08900
C1136       C  0.11930886  0.87486853  0.11602166     0.07300
C1137       C  0.09290550  0.87472729  0.13893719    -0.02700
C1138       C  0.09440000  0.87484083  0.17978078    -0.07100
C1139       C  0.12131138  0.87770537  0.19858196     0.06400
C1140       C  0.14468118  0.88856751  0.17755685    -0.02200
Br1141     Br  0.17326790  0.91443311  0.20261001    -0.01900
H1142       H  0.16240235  0.89334370  0.12013312     0.10300
H1143       H  0.07425244  0.87403193  0.19719717     0.08300
Br1144     Br  0.05440278  0.88080037  0.11953640    -0.02300
C1145       C  0.26467322  0.99322147  0.23895329    -0.08900
C1146       C  0.29086486  0.49461885  0.25885901     0.07300
C1147       C  0.29781846  0.52199133  0.28056358    -0.02700
C1148       C  0.27879974  0.54627635  0.28113096    -0.07100
C1149       C  0.25286100  0.54400837  0.26015582     0.06400
C1150       C  0.24562437  0.51662312  0.23886032    -0.02200
Br1151     Br  0.20886081  0.51094014  0.21351356    -0.01900
H1152       H  0.25914801  0.97227157  0.22229116     0.10300
H1153       H  0.28432096  0.56723522  0.29779220     0.08300
Br1154     Br  0.33379253  0.52807517  0.30788095    -0.02300
C1155       C  0.26265563  0.53447333  0.05048688    -0.08900
C1156       C  0.24005632  0.52896792  0.02363740     0.07300
C1157       C  0.23966192  0.50178167  0.99852641    -0.02700
C1158       C  0.26235059  0.98138160  0.99864774    -0.07100
C1159       C  0.28610182  0.48757877  0.02441403     0.06400
C1160       C  0.28561075  0.51417346  0.05113566    -0.02200
Br1161     Br  0.31689766  0.52589992  0.08606365    -0.01900
H1162       H  0.26314541  0.55536173  0.06984508     0.10300
H1163       H  0.26245667  0.96089716  0.97826073     0.08300
Br1164     Br  0.20830557  0.49130284  0.96353129    -0.02300
C1165       C  0.36608823  0.95076728  0.35733588    -0.08900
C1166       C  0.37253860  0.92417100  0.33242706     0.07300
C1167       C  0.38469360  0.90064262  0.34977051    -0.02700
C1168       C  0.38210483  0.90142396  0.39085491    -0.07100
C1169       C  0.37137732  0.92678402  0.41574322     0.06400
C1170       C  0.36675549  0.95276302  0.39849687    -0.02200
Br1171     Br  0.36635254  0.99238808  0.42662223    -0.01900
H1172       H  0.36257718  0.97074887  0.34461278     0.10300
H1173       H  0.39046588  0.88278880  0.40370183     0.08300
Br1174     Br  0.41056344  0.87025598  0.32165454    -0.02300
C1175       C  0.38917771  0.90090834  0.13890219    -0.08900
C1176       C  0.37903336  0.92618921  0.16462138     0.07300
C1177       C  0.37653372  0.95300219  0.14905454    -0.02700
C1178       C  0.37657924  0.95219458  0.10813168    -0.07100
C1179       C  0.38042796  0.92548295  0.08232797     0.06400
C1180       C  0.39067182  0.90052005  0.09798082    -0.02200
Br1181     Br  0.40833549  0.86595473  0.06631980    -0.01900
H1182       H  0.39660084  0.88141374  0.15047070     0.10300
H1183       H  0.37384091  0.97272736  0.09645089     0.08300
Br1184     Br  0.37521949  0.99170452  0.18027796    -0.02300
C1185       C  0.05004172  0.77085009  0.28280998    -0.08900
C1186       C  0.04817822  0.79576590  0.26346165     0.07300
C1187       C  0.02328578  0.79998870  0.24109685    -0.02700
C1188       C  0.00128752  0.77916085  0.23775325    -0.07100
C1189       C  0.00302090  0.75433352  0.25734853     0.06400
C1190       C  0.02784023  0.75023566  0.27996961    -0.02200
Br1191     Br  0.03345498  0.71625504  0.30592603    -0.01900
H1192       H  0.06903271  0.76736759  0.30004229     0.10300
H1193       H  0.48222863  0.78276667  0.22071077     0.08300
Br1194     Br  0.01677834  0.83512726  0.21785466    -0.02300
C1195       C  0.04705020  0.77198344  0.03404845    -0.08900
C1196       C  0.04495792  0.79669447  0.01433177     0.07300
C1197       C  0.02067883  0.79939641  0.48996796    -0.02700
C1198       C  0.99941707  0.77780680  0.48599894    -0.07100
C1199       C  0.00141016  0.75328759  0.00603576     0.06400
C1200       C  0.02584857  0.75032858  0.02985964    -0.02200
Br1201     Br  0.03289417  0.71622360  0.05494626    -0.01900
H1202       H  0.06569717  0.76921509  0.05220813     0.10300
H1203       H  0.48077476  0.78049641  0.46778944     0.08300
Br1204     Br  0.01369130  0.83280646  0.46345719    -0.02300
C1205       C  0.40109981  0.66707216  0.38622735    -0.08900
C1206       C  0.42596935  0.67647478  0.40713520     0.07300
C1207       C  0.45259314  0.67658164  0.38482905    -0.02700
C1208       C  0.45155568  0.67824991  0.34441380    -0.07100
C1209       C  0.42482490  0.67652043  0.32508139     0.06400
C1210       C  0.40091928  0.66537855  0.34501708    -0.02200
Br1211     Br  0.37145438  0.64131850  0.31852359    -0.01900
H1212       H  0.38239918  0.65938014  0.40168039     0.10300
H1213       H  0.47196803  0.67887789  0.32754663     0.08300
Br1214     Br  0.49050443  0.66768520  0.40417448    -0.02300
C1215       C  0.41020078  0.70368350  0.10223361    -0.08900
C1216       C  0.42599482  0.68203489  0.07610631     0.07300
C1217       C  0.45010030  0.66785995  0.09191203    -0.02700
C1218       C  0.45062744  0.66757965  0.13270633    -0.07100
C1219       C  0.42946009  0.68351452  0.15818964     0.06400
C1220       C  0.41347611  0.70592308  0.14309279    -0.02200
Br1221     Br  0.40097641  0.74267940  0.17477916    -0.01900
H1222       H  0.39757968  0.72064372  0.09103768     0.10300
H1223       H  0.46890175  0.65683595  0.14463942     0.08300
Br1224     Br  0.48573901  0.65352070  0.06251476    -0.02300
C1225       C  0.42457534  0.67927530  0.95181256     0.30200
C1226       C  0.42254174  0.68067327  0.53191263     0.30200
C1227       C  0.42913806  0.64937898  0.96612408    -0.06000
C1228       C  0.44674350  0.69929954  0.97465047    -0.06800
C1229       C  0.39533173  0.69156431  0.97343498    -0.06600
C1230       C  0.42696178  0.64970775  0.50690692    -0.06000
C1231       C  0.44594455  0.69936673  0.51526119    -0.06700
C1232       C  0.39385718  0.69230411  0.51471180    -0.06600
C1233       C  0.43678464  0.62217422  0.51392178    -0.32000
N1234       N  0.44797209  0.60649081  0.97934760     0.14500
C1235       C  0.44322093  0.62303844  0.94996964    -0.32000
H1236       H  0.45263312  0.61794618  0.91996925     0.16400
C1237       C  0.46560860  0.71965283  0.53152109    -0.31000
N1238       N  0.47880374  0.73172999  0.50166373     0.13200
C1239       C  0.46638554  0.72045245  0.96698783    -0.31000
C1240       C  0.36602829  0.70427352  0.52767105    -0.31300
N1241       N  0.35130636  0.71124636  0.49568602     0.13700
H1242       H  0.35683765  0.70711243  0.55783495     0.16300
C1243       C  0.36925691  0.70369567  0.96275341    -0.31300
H1244       H  0.36369326  0.70703107  0.93292156     0.16300
H1245       H  0.47135587  0.72716422  0.93829051     0.16300
H1246       H  0.43986903  0.61575324  0.54298724     0.16400
H1247       H  0.46937083  0.72579361  0.56297018     0.16300
C1248       C  0.42802098  0.68027648  0.70163419     0.30200
C1249       C  0.42510245  0.67922123  0.78145816     0.30200
C1250       C  0.43677686  0.65051292  0.71457163    -0.06000
C1251       C  0.44742347  0.70200299  0.72644246    -0.06800
C1252       C  0.39748887  0.68588221  0.72208501    -0.06600
C1253       C  0.43492357  0.65030699  0.75549415    -0.06000
C1254       C  0.44598743  0.70181795  0.76719816    -0.06700
C1255       C  0.39613514  0.68706929  0.76319257    -0.06600
C1256       C  0.44634983  0.62388043  0.76287397    -0.32000
N1257       N  0.45534223  0.60779286  0.72770056     0.14500
C1258       C  0.44950585  0.62363687  0.69795346    -0.32000
H1259       H  0.45625628  0.61664861  0.66711631     0.16400
C1260       C  0.46571664  0.72221040  0.78348115    -0.31000
N1261       N  0.47977199  0.73353638  0.75343551     0.13200
C1262       C  0.46837240  0.72157307  0.71845448    -0.31000
C1263       C  0.36810130  0.69694077  0.77603287    -0.31300
N1264       N  0.35221335  0.69923385  0.74343598     0.13700
H1265       H  0.36028189  0.70337391  0.80663917     0.16300
C1266       C  0.36976557  0.69167254  0.71044574    -0.31300
H1267       H  0.36318564  0.69263721  0.68026636     0.16300
H1268       H  0.47543106  0.72612161  0.68924459     0.16300
H1269       H  0.45099856  0.61820468  0.79198499     0.16400
H1270       H  0.46977969  0.72829829  0.81483052     0.16300
C1271       C  0.37648743  0.92536102  0.53848576     0.30200
C1272       C  0.37160467  0.92632359  0.96004737     0.30200
C1273       C  0.36493001  0.89740500  0.51557465    -0.06000
C1274       C  0.35490991  0.94889295  0.52750328    -0.06800
C1275       C  0.40482862  0.93026832  0.51666165    -0.06600
C1276       C  0.36161638  0.89727954  0.97457771    -0.06000
C1277       C  0.35234623  0.94915124  0.98670611    -0.06700
C1278       C  0.40258540  0.93190777  0.97613935    -0.06600
C1279       C  0.33691127  0.88019633  0.96540186    -0.32000
N1280       N  0.32652951  0.87017260  0.49890375     0.14500
C1281       C  0.34327441  0.88117478  0.52907624    -0.32000
H1282       H  0.33857539  0.87960887  0.56020717     0.16400
C1283       C  0.32487960  0.96041307  0.98147666    -0.31000
N1284       N  0.31172642  0.96919042  0.51756298     0.13200
C1285       C  0.32886734  0.96046289  0.54560267    -0.31000
C1286       C  0.42267874  0.95290640  0.96821463    -0.31300
N1287       N  0.43706261  0.96249095  0.50185632     0.13700
H1288       H  0.42445305  0.96261415  0.94107464     0.16300
C1289       C  0.42633317  0.94865825  0.53115094    -0.31300
H1290       H  0.43099246  0.95459259  0.56238809     0.16300
H1291       H  0.32221218  0.96125178  0.57667793     0.16300
H1292       H  0.32590097  0.87765669  0.93736508     0.16400
H1293       H  0.31493805  0.96175785  0.95321209     0.16300
C1294       C  0.37198018  0.92405023  0.78799857     0.30200
C1295       C  0.37512400  0.92472160  0.70837671     0.30200
C1296       C  0.36936963  0.89391671  0.76214401    -0.06000
C1297       C  0.34725666  0.94191905  0.77172730    -0.06800
C1298       C  0.39975339  0.93656226  0.77195747    -0.06600
C1299       C  0.37133657  0.89400408  0.72068196    -0.06000
C1300       C  0.34869592  0.94188202  0.73071479    -0.06700
C1301       C  0.40150714  0.93661998  0.73127711    -0.06600
C1302       C  0.35459316  0.87098732  0.70367076    -0.32000
N1303       N  0.34342241  0.85709582  0.73280498     0.14500
C1304       C  0.35121609  0.87139711  0.76830603    -0.32000
H1305       H  0.34260995  0.86699927  0.79690063     0.16400
C1306       C  0.32544619  0.95904462  0.72154767    -0.31000
N1307       N  0.31109446  0.97085620  0.75600350     0.13200
C1308       C  0.32351979  0.95978285  0.78669809    -0.31000
C1309       C  0.42319001  0.95553874  0.72366517    -0.31300
N1310       N  0.43372772  0.96777327  0.75885452     0.13700
H1311       H  0.42950722  0.96150976  0.69495464     0.16300
C1312       C  0.41959487  0.95641965  0.78859720    -0.31300
H1313       H  0.42213158  0.96361596  0.82014404     0.16300
H1314       H  0.31652073  0.96562440  0.81770364     0.16300
H1315       H  0.34855503  0.86646371  0.67280418     0.16400
H1316       H  0.32047715  0.96432127  0.69236811     0.16300
O1317       O  0.07621814  0.56519026  0.98316832    -0.80700
O1318       O  0.46608278  0.49914770  0.98105051    -0.65400
O1319       O  0.02367754  0.55472254  0.51511271    -1.12000
C1320       C  0.07266812  0.96722064  0.54708163     1.06200
O1321       O  0.46936922  0.99035643  0.54279396    -0.78600
O1322       O  0.01065930  0.99673531  0.60149217    -0.66100
Ni1323     Ni  0.03722623  0.58019939  0.97915281     1.34900
C1324       C  0.02401613  0.51961048  0.61476965     0.85000
O1325       O  0.46794547  0.55925304  0.98353240    -0.79100
O1326       O  0.99813475  0.59634067  0.97612498    -0.89400
C1327       C  0.45786182  0.98535209  0.50876630     0.84500
O1328       O  0.03496011  0.55842842  0.92533605    -0.67600
O1329       O  0.04672037  0.95787114  0.55099826    -0.86900
C1330       C  0.02241161  0.53472863  0.91230749     0.85400
C1331       C  0.47248997  0.58603030  0.97884579     1.06900
H1332       H  0.03023238  0.98739938  0.98813002     0.38700
O1333       O  0.02232819  0.99979060  0.51178801    -1.09500
O1334       O  0.03816898  0.53354127  0.58978454    -0.66200
Ni1335     Ni  0.05125644  0.52584502  0.53132543     1.26300
O1336       O  0.00876338  0.52039820  0.93720508    -0.66400
O1337       O  0.07800836  0.99392227  0.54209772    -0.78700
C1338       C  0.08853133  0.56956175  0.51663121     0.84700
O1339       O  0.08058991  0.55498534  0.54423673    -0.65900
Ni1340     Ni  0.00802192  0.97474716  0.54777993     1.27400
Ni1341     Ni  0.49480977  0.52818009  0.49509739     1.26100
H1342       H  0.01561205  0.56685758  0.53888104     0.39300
O1343       O  0.08030145  0.55871626  0.72879071    -0.80700
O1344       O  0.46535563  0.50103988  0.73508013    -0.65400
O1345       O  0.02637335  0.55374124  0.76300950    -1.12000
C1346       C  0.06891758  0.96759796  0.80162841     1.06200
O1347       O  0.46732933  0.99509708  0.79779954    -0.78600
O1348       O  0.00941551  0.00077584  0.85449963    -0.66100
Ni1349     Ni  0.04222767  0.57631557  0.72513769     1.34900
C1350       C  0.02370880  0.52323922  0.86651581     0.85000
O1351       O  0.47170536  0.55988477  0.73128140    -0.79100
O1352       O  0.00443529  0.59473060  0.72241477    -0.89400
C1353       C  0.45566444  0.98945848  0.76411201     0.84500
O1354       O  0.03736068  0.55367198  0.67276299    -0.67600
O1355       O  0.04270338  0.95923128  0.80612761    -0.86900
C1356       C  0.02328376  0.53074191  0.66082839     0.85400
C1357       C  0.47823787  0.58598835  0.72583959     1.06900
H1358       H  0.02846705  0.98624124  0.74158621     0.38700
O1359       O  0.02104154  0.99991137  0.76433736    -1.07500
O1360       O  0.03843304  0.53592267  0.84058978    -0.66200
Ni1361     Ni  0.05150901  0.52476844  0.78211993     1.26300
O1362       O  0.00924829  0.51748928  0.68680389    -0.66400
O1363       O  0.07562612  0.99353165  0.79557907    -0.78700
C1364       C  0.09278662  0.56309637  0.76209970     0.84700
O1365       O  0.08263778  0.55175576  0.79170467    -0.65900
Ni1366     Ni  0.00506549  0.97757315  0.80252995     1.27400
Ni1367     Ni  0.49605269  0.52835195  0.74529901     1.26100
H1368       H  0.01890719  0.56728480  0.78587793     0.39300
C1369       C  0.12252352  0.87140817  0.99133083     0.30200
C1370       C  0.12041039  0.87201815  0.57126554     0.30200
C1371       C  0.11660607  0.90206533  0.51673607    -0.06000
C1372       C  0.09989154  0.85156311  0.50727306    -0.06800
C1373       C  0.15156600  0.86086654  0.50851277    -0.06600
C1374       C  0.11452150  0.90195284  0.55737565    -0.06000
C1375       C  0.09894312  0.85122890  0.54785495    -0.06700
C1376       C  0.15019103  0.86104056  0.54961169    -0.06600
C1377       C  0.10105219  0.92849506  0.57430145    -0.32000
N1378       N  0.09642366  0.94560931  0.54543540     0.14500
C1379       C  0.10683263  0.92985391  0.01037194    -0.32000
H1380       H  0.10365893  0.93661758  0.98152361     0.16400
C1381       C  0.07939114  0.82969879  0.55467835    -0.31000
N1382       N  0.06729510  0.81858488  0.51959368     0.13200
C1383       C  0.08054821  0.83119977  0.99030346    -0.31000
C1384       C  0.17673076  0.84922056  0.55969189    -0.31300
N1385       N  0.19459722  0.84238467  0.52642660     0.13700
H1386       H  0.18252223  0.84535879  0.58923332     0.16300
C1387       C  0.17954947  0.84972246  0.99503514    -0.31300
H1388       H  0.18861960  0.84750987  0.96485412     0.16300
H1389       H  0.07698131  0.82547670  0.95873880     0.16300
H1390       H  0.09222853  0.93353488  0.60462753     0.16400
H1391       H  0.07421346  0.82267245  0.58311795     0.16300
C1392       C  0.12206479  0.87486216  0.74214806     0.30200
C1393       C  0.11985710  0.87244884  0.82168739     0.30200
C1394       C  0.11120232  0.90303747  0.76895149    -0.06000
C1395       C  0.10263566  0.85096201  0.75579351    -0.06800
C1396       C  0.15156193  0.86812588  0.75999569    -0.06600
C1397       C  0.10981430  0.90211502  0.80969417    -0.06000
C1398       C  0.10136813  0.85014303  0.79635626    -0.06700
C1399       C  0.15049309  0.86841012  0.80105476    -0.06600
C1400       C  0.09750815  0.92887140  0.82750642    -0.32000
N1401       N  0.09148728  0.94540055  0.79858720     0.14500
C1402       C  0.09992664  0.92982242  0.76280047    -0.32000
H1403       H  0.09534957  0.93630232  0.73411616     0.16400
C1404       C  0.08163238  0.82919943  0.80356125    -0.31000
N1405       N  0.07093961  0.81703197  0.76820520     0.13200
C1406       C  0.08428202  0.82954034  0.73874294    -0.31000
C1407       C  0.17833715  0.86237109  0.81199487    -0.31300
N1408       N  0.19566414  0.85531437  0.77861511     0.13700
H1409       H  0.18503988  0.86043916  0.84185377     0.16300
C1410       C  0.17955909  0.85855912  0.74649776    -0.31300
H1411       H  0.18697550  0.85229049  0.71569724     0.16300
H1412       H  0.08047134  0.82368529  0.70728037     0.16300
H1413       H  0.09149532  0.93545713  0.85869740     0.16400
H1414       H  0.07479111  0.82392160  0.83248264     0.16300
C1415       C  0.17881705  0.62173398  0.56330957     0.30200
C1416       C  0.17863994  0.61353980  0.98269417     0.30200
C1417       C  0.19475452  0.64514702  0.54298759    -0.06000
C1418       C  0.19257865  0.59249198  0.54253181    -0.06800
C1419       C  0.14794571  0.61953554  0.54552796    -0.06600
C1420       C  0.19500536  0.63990767  0.00209713    -0.06000
C1421       C  0.19364390  0.58842663  0.00094583    -0.06700
C1422       C  0.14825979  0.61693149  0.00361596    -0.06600
C1423       C  0.21456457  0.65807418  0.98778323    -0.32000
N1424       N  0.22565024  0.67587151  0.51868328     0.14500
C1425       C  0.21354960  0.66844975  0.55304848    -0.32000
H1426       H  0.21883293  0.67833786  0.58283783     0.16400
C1427       C  0.21147710  0.56378938  0.98914087    -0.31000
N1428       N  0.21832467  0.55165152  0.52201589     0.13200
C1429       C  0.20652376  0.56889867  0.55466454    -0.31000
C1430       C  0.12483244  0.60047837  0.99074162    -0.31300
N1431       N  0.11119960  0.59076854  0.52176807     0.13700
H1432       H  0.12096574  0.59214161  0.95983931     0.16300
C1433       C  0.12513731  0.60166474  0.55520034    -0.31300
H1434       H  0.12149467  0.59423342  0.58375289     0.16300
H1435       H  0.20977029  0.56550391  0.58516922     0.16300
H1436       H  0.22051378  0.65815186  0.95661426     0.16400
H1437       H  0.22071990  0.55645657  0.95946922     0.16300
C1438       C  0.17773391  0.62385164  0.81446524     0.30200
C1439       C  0.17922067  0.62445474  0.73456595     0.30200
C1440       C  0.18295471  0.65403320  0.80156837    -0.06000
C1441       C  0.20242261  0.60492518  0.79066723    -0.06800
C1442       C  0.15023520  0.61302782  0.79277435    -0.06600
C1443       C  0.18292688  0.65422577  0.76044077    -0.06000
C1444       C  0.20280698  0.60449011  0.74957100    -0.06700
C1445       C  0.15118959  0.61295505  0.75179822    -0.06600
C1446       C  0.19723846  0.67879658  0.75267872    -0.32000
N1447       N  0.20590172  0.69357954  0.78749035     0.14500
C1448       C  0.19899080  0.67799964  0.81714337    -0.32000
H1449       H  0.20653163  0.68282029  0.84728861     0.16400
C1450       C  0.22147219  0.58136075  0.73323299    -0.31000
N1451       N  0.23330805  0.56920065  0.76345794     0.13200
C1452       C  0.22235749  0.58382098  0.79854272    -0.31000
C1453       C  0.13091935  0.59322476  0.73610723    -0.31300
N1454       N  0.11689161  0.58243257  0.76640701     0.13700
H1455       H  0.12756720  0.58620317  0.70470718     0.16300
C1456       C  0.12881840  0.59391907  0.80106865    -0.31300
H1457       H  0.12337035  0.58761169  0.82987753     0.16300
H1458       H  0.22737284  0.57805416  0.82744301     0.16300
H1459       H  0.20295309  0.68434915  0.72350311     0.16400
H1460       H  0.22522902  0.57305026  0.70187716     0.16300
O1461       O  0.28667982  0.75125680  0.90788752    -0.80700
O1462       O  0.28030171  0.75801192  0.59413395    -0.65400
O1463       O  0.25843695  0.75839420  0.98491315    -1.12000
C1464       C  0.30324890  0.85067839  0.50553992     1.06200
O1465       O  0.25919226  0.80176845  0.61130932    -0.78600
O1466       O  0.23778528  0.83489406  0.55885336    -0.66100
Ni1467     Ni  0.27053570  0.72655698  0.94430428     1.34900
C1468       C  0.22456343  0.83059918  0.52625917     0.85000
O1469       O  0.25025937  0.71954121  0.54116871    -0.79100
O1470       O  0.25394728  0.69959690  0.97631716    -0.89400
C1471       C  0.27255356  0.77948613  0.62107106     0.84500
O1472       O  0.30933346  0.71941733  0.96099002    -0.67600
O1473       O  0.29439476  0.85133227  0.54191105    -0.86900
C1474       C  0.32136799  0.72275463  0.49452451     0.85400
C1475       C  0.24476770  0.69934658  0.51235252     1.06900
H1476       H  0.30757378  0.79077316  0.53324567     0.38700
O1477       O  0.28649585  0.79322493  0.53385551    -1.09500
O1478       O  0.23678878  0.81629770  0.99434544    -0.66200
Ni1479     Ni  0.27494392  0.79552571  0.98013418     1.26300
O1480       O  0.30791380  0.73569419  0.52625374    -0.66400
O1481       O  0.29493378  0.83172714  0.97697151    -0.78700
C1482       C  0.27252808  0.77307910  0.89818673     0.84700
O1483       O  0.26370482  0.79399534  0.92524801    -0.65900
Ni1484     Ni  0.27633547  0.82557991  0.57452286     1.27400
Ni1485     Ni  0.26961307  0.75625458  0.53888408     1.26100
H1486       H  0.23733321  0.76034673  0.98478227     0.39300
O1487       O  0.31888869  0.72646131  0.71253960    -0.80700
O1488       O  0.23921658  0.83304575  0.74729748    -0.65400
O1489       O  0.30111703  0.77757404  0.75665929    -1.12000
C1490       C  0.22157126  0.72013135  0.79070423     1.06200
O1491       O  0.22744557  0.82529664  0.80760489    -0.78600
O1492       O  0.23886245  0.78298833  0.85047920    -0.66100
Ni1493     Ni  0.32893244  0.76648539  0.71398062     1.34900
C1494       C  0.26394274  0.77244557  0.85601214     0.85000
O1495       O  0.29915096  0.83444844  0.73994737    -0.79100
O1496       O  0.33939696  0.80690188  0.71555755    -0.89400
C1497       C  0.22235603  0.83835614  0.77812877     0.84500
O1498       O  0.30594085  0.76761210  0.66817422    -0.67600
O1499       O  0.20695016  0.74444180  0.80031454    -0.86900
C1500       C  0.28167035  0.78007940  0.66312558     0.85400
C1501       C  0.32614924  0.83157498  0.72815803     1.06900
H1502       H  0.23595591  0.76725557  0.73830395     0.38700
O1503       O  0.24599363  0.77497388  0.76202420    -1.09500
O1504       O  0.28062175  0.75982066  0.82723582    -0.66200
Ni1505     Ni  0.27598634  0.74739071  0.77003863     1.26300
O1506       O  0.26639030  0.79445828  0.69216675    -0.66400
O1507       O  0.24890147  0.71822729  0.78104113    -0.78700
C1508       C  0.32480609  0.71471744  0.74290073     0.84700
O1509       O  0.30818982  0.72056237  0.77382012    -0.65900
Ni1510     Ni  0.21722954  0.78511063  0.80375015     1.27400
Ni1511     Ni  0.27129620  0.80552393  0.74971377     1.26100
H1512       H  0.31177351  0.78519181  0.77993534     0.39300
C1513       C  0.17727120  0.59306178  0.86916097    -0.08900
C1514       C  0.17510345  0.62137677  0.85818103     0.07300
C1515       C  0.16561355  0.64479390  0.88777940    -0.02700
C1516       C  0.16687709  0.64094081  0.92735935    -0.07100
C1517       C  0.17589855  0.61384254  0.93850307     0.06400
C1518       C  0.17678488  0.58892558  0.90890108    -0.02200
Br1519     Br  0.16887610  0.54981909  0.91856964    -0.01900
H1520       H  0.17782270  0.57379798  0.84652276     0.10300
H1521       H  0.16034758  0.65936764  0.94995166     0.08300
Br1522     Br  0.14556391  0.68027193  0.87817896    -0.02300
C1523       C  0.15523873  0.63681824  0.63159234    -0.08900
C1524       C  0.18039049  0.62695906  0.60812767     0.07300
C1525       C  0.20690227  0.62337058  0.62755487    -0.02700
C1526       C  0.20605336  0.62284802  0.66841504    -0.07100
C1527       C  0.17953272  0.62705685  0.69077283     0.06400
C1528       C  0.15495097  0.63805003  0.67275983    -0.02200
Br1529     Br  0.12141943  0.65746134  0.70206005    -0.01900
H1530       H  0.13579544  0.64427048  0.61819049     0.10300
H1531       H  0.22647937  0.61997465  0.68276805     0.08300
Br1532     Br  0.24515811  0.61993061  0.60141472    -0.02300
C1533       C  0.09582741  0.88367004  0.88980545    -0.08900
C1534       C  0.11815408  0.86887091  0.86499744     0.07300
C1535       C  0.13458623  0.84691987  0.88038603    -0.02700
C1536       C  0.13653620  0.84875905  0.92138820    -0.07100
C1537       C  0.11983567  0.86997543  0.94709199     0.06400
C1538       C  0.09569988  0.88338431  0.93061702    -0.02200
Br1539     Br  0.05942996  0.89635850  0.95927583    -0.01900
H1540       H  0.07738167  0.89374177  0.87728369     0.10300
H1541       H  0.14889371  0.83175566  0.93285013     0.08300
Br1542     Br  0.14930446  0.81088251  0.84889701    -0.02300
C1543       C  0.14411795  0.88551094  0.63625250    -0.08900
C1544       C  0.11930888  0.87486876  0.61602190     0.07300
C1545       C  0.09290571  0.87472806  0.63893799    -0.02700
C1546       C  0.09440060  0.87484219  0.67978161    -0.07100
C1547       C  0.12131220  0.87770641  0.69858221     0.06400
C1548       C  0.14468199  0.88856795  0.67755645    -0.02200
Br1549     Br  0.17326917  0.91443342  0.70260856    -0.01900
H1550       H  0.16240260  0.89334361  0.62013229     0.10300
H1551       H  0.07425315  0.87403373  0.69719842     0.08300
Br1552     Br  0.05440270  0.88080084  0.61953805    -0.02300
C1553       C  0.26467362  0.99322067  0.73895219    -0.08900
C1554       C  0.29086585  0.49461916  0.75885882     0.07300
C1555       C  0.29781940  0.52199157  0.78056363    -0.02700
C1556       C  0.27880056  0.54627656  0.78113139    -0.07100
C1557       C  0.25286177  0.54400860  0.76015637     0.06400
C1558       C  0.24562523  0.51662341  0.73886059    -0.02200
Br1559     Br  0.20886159  0.51094027  0.71351411    -0.01900
H1560       H  0.25914861  0.97227071  0.72229003     0.10300
H1561       H  0.28432176  0.56723537  0.79779280     0.08300
Br1562     Br  0.33379353  0.52807541  0.80788089    -0.02300
C1563       C  0.26265507  0.53447241  0.55048757    -0.08900
C1564       C  0.24005579  0.52896666  0.52363811     0.07300
C1565       C  0.23966171  0.50178040  0.49852708    -0.02700
C1566       C  0.26235055  0.98138183  0.49864647    -0.07100
C1567       C  0.28610196  0.48757826  0.52441448     0.06400
C1568       C  0.28561052  0.51417292  0.55113622    -0.02200
Br1569     Br  0.31689734  0.52589995  0.58606415    -0.01900
H1570       H  0.26314462  0.55536081  0.56984576     0.10300
H1571       H  0.26245677  0.96089754  0.47825913     0.08300
Br1572     Br  0.20830565  0.49130130  0.46353163    -0.02300
C1573       C  0.36608799  0.95076738  0.85733594    -0.08900
C1574       C  0.37253896  0.92417122  0.83242708     0.07300
C1575       C  0.38469432  0.90064305  0.84977055    -0.02700
C1576       C  0.38210536  0.90142425  0.89085489    -0.07100
C1577       C  0.37137731  0.92678409  0.91574324     0.06400
C1578       C  0.36675503  0.95276307  0.89849696    -0.02200
Br1579     Br  0.36635159  0.99238811  0.92662245    -0.01900
H1580       H  0.36257676  0.97074896  0.84461287     0.10300
H1581       H  0.39046678  0.88278924  0.90370181     0.08300
Br1582     Br  0.41056504  0.87025713  0.82165457    -0.02300
C1583       C  0.38917762  0.90090818  0.63890211    -0.08900
C1584       C  0.37903378  0.92618911  0.66462141     0.07300
C1585       C  0.37653391  0.95300206  0.64905453    -0.02700
C1586       C  0.37657891  0.95219442  0.60813168    -0.07100
C1587       C  0.38042725  0.92548277  0.58232794     0.06400
C1588       C  0.39067094  0.90051971  0.59798071    -0.02200
Br1589     Br  0.40833311  0.86595366  0.56631969    -0.01900
H1590       H  0.39660088  0.88141359  0.65047052     0.10300
H1591       H  0.37384057  0.97272721  0.59645091     0.08300
Br1592     Br  0.37522008  0.99170437  0.68027793    -0.02300
C1593       C  0.05004265  0.77085115  0.78280981    -0.08900
C1594       C  0.04817912  0.79576687  0.76346130     0.07300
C1595       C  0.02328668  0.79998947  0.74109634    -0.02700
C1596       C  0.00128845  0.77916158  0.73775296    -0.07100
C1597       C  0.00302184  0.75433440  0.75734855     0.06400
C1598       C  0.02784121  0.75023669  0.77996961    -0.02200
Br1599     Br  0.03345620  0.71625613  0.80592602    -0.01900
H1600       H  0.06903367  0.76736876  0.80004212     0.10300
H1601       H  0.48222916  0.78276771  0.72071093     0.08300
Br1602     Br  0.01677917  0.83512785  0.71785374    -0.02300
C1603       C  0.04705030  0.77198292  0.53404654    -0.08900
C1604       C  0.04495645  0.79669542  0.51433300     0.07300
C1605       C  0.02068156  0.79939413  0.98996400    -0.02700
C1606       C  0.99941952  0.77780474  0.98599563    -0.07100
C1607       C  0.00140931  0.75328818  0.50603585     0.06400
C1608       C  0.02584889  0.75032786  0.52985706    -0.02200
Br1609     Br  0.03289612  0.71622080  0.55493853    -0.01900
H1610       H  0.06569827  0.76921362  0.55220408     0.10300
H1611       H  0.48077961  0.78049201  0.96778075     0.08300
Br1612     Br  0.01369587  0.83280201  0.96344821    -0.02300
C1613       C  0.40110027  0.66707171  0.88622685    -0.08900
C1614       C  0.42596971  0.67647433  0.90713496     0.07300
C1615       C  0.45259349  0.67658171  0.88482901    -0.02700
C1616       C  0.45155603  0.67825076  0.84441403    -0.07100
C1617       C  0.42482532  0.67652128  0.82508149     0.06400
C1618       C  0.40091982  0.66537865  0.84501662    -0.02200
Br1619     Br  0.37145525  0.64131862  0.81852215    -0.01900
H1620       H  0.38239966  0.65937940  0.90167963     0.10300
H1621       H  0.47196841  0.67887905  0.82754703     0.08300
Br1622     Br  0.49050482  0.66768472  0.90417392    -0.02300
C1623       C  0.41020135  0.70368398  0.60223376    -0.08900
C1624       C  0.42599496  0.68203501  0.57610646     0.07300
C1625       C  0.45010038  0.66785987  0.59191203    -0.02700
C1626       C  0.45062778  0.66757983  0.63270635    -0.07100
C1627       C  0.42946090  0.68351524  0.65818980     0.06400
C1628       C  0.41347705  0.70592383  0.64309288    -0.02200
Br1629     Br  0.40097764  0.74268030  0.67477910    -0.01900
H1630       H  0.39758025  0.72064418  0.59103777     0.10300
H1631       H  0.46890208  0.65683597  0.64463926     0.08300
Br1632     Br  0.48573879  0.65351988  0.56251463    -0.02300
C1633       C  0.92458572  0.17996429  0.45114432     0.30200
C1634       C  0.92322666  0.18252023  0.03145236     0.30200
C1635       C  0.93020035  0.15049502  0.46624319    -0.06000
C1636       C  0.94632074  0.20100714  0.47329494    -0.06800
C1637       C  0.89517288  0.19170312  0.47285488    -0.06600
C1638       C  0.92855991  0.15143140  0.00711118    -0.06000
C1639       C  0.94579994  0.20170608  0.01410284    -0.06700
C1640       C  0.89405986  0.19301235  0.01423667    -0.06600
C1641       C  0.93882928  0.12416278  0.01468566    -0.32000
N1642       N  0.94915101  0.10780646  0.48008494     0.14500
C1643       C  0.94377444  0.12381692  0.45028978    -0.32000
H1644       H  0.95227860  0.11801907  0.41991219     0.16400
C1645       C  0.96520797  0.22249058  0.02969314    -0.31000
N1646       N  0.97753989  0.23453327  0.99931272     0.13200
C1647       C  0.96570045  0.22220799  0.46475519    -0.31000
C1648       C  0.86622377  0.20489453  0.02737755    -0.31300
N1649       N  0.85115678  0.21134623  0.99542354     0.13700
H1650       H  0.85729473  0.20819584  0.05768018     0.16300
C1651       C  0.86888113  0.20351071  0.46231271    -0.31300
H1652       H  0.86308943  0.20663304  0.43248643     0.16300
H1653       H  0.97094996  0.22818044  0.43570015     0.16300
H1654       H  0.94252880  0.11824766  0.04388849     0.16400
H1655       H  0.97001940  0.22847622  0.06085097     0.16300
C1656       C  0.92758304  0.18076704  0.20093617     0.30200
C1657       C  0.92483996  0.17935007  0.28073166     0.30200
C1658       C  0.93658226  0.15097007  0.21361140    -0.06000
C1659       C  0.94688064  0.20247903  0.22586121    -0.06800
C1660       C  0.89705078  0.18614787  0.22152096    -0.06600
C1661       C  0.93471429  0.15056737  0.25451007    -0.06000
C1662       C  0.94558813  0.20211133  0.26658006    -0.06700
C1663       C  0.89578554  0.18714153  0.26261848    -0.06600
C1664       C  0.94617522  0.12412207  0.26170243    -0.32000
N1665       N  0.95535819  0.10823189  0.22648976     0.14500
C1666       C  0.94962247  0.12426243  0.19685478    -0.32000
H1667       H  0.95664563  0.11760664  0.16603954     0.16400
C1668       C  0.96541047  0.22242250  0.28283141    -0.31000
N1669       N  0.97931012  0.23388602  0.25276380     0.13200
C1670       C  0.96776592  0.22206911  0.21784636    -0.31000
C1671       C  0.86773168  0.19685150  0.27563305    -0.31300
N1672       N  0.85174228  0.19923637  0.24315498     0.13700
H1673       H  0.85996790  0.20313882  0.30628896     0.16300
C1674       C  0.86925904  0.19188440  0.21006476    -0.31300
H1675       H  0.86260941  0.19297302  0.17994556     0.16300
H1676       H  0.97473615  0.22668335  0.18863308     0.16300
H1677       H  0.95073070  0.11831007  0.29077051     0.16400
H1678       H  0.96967214  0.22831347  0.31415190     0.16300
C1679       C  0.87661647  0.42516898  0.03836808     0.30200
C1680       C  0.87158438  0.42617771  0.45996506     0.30200
C1681       C  0.86470848  0.39739174  0.01554292    -0.06000
C1682       C  0.85529307  0.44896744  0.02751372    -0.06800
C1683       C  0.90498170  0.42967989  0.01637813    -0.06600
C1684       C  0.86136024  0.39727024  0.47457151    -0.06000
C1685       C  0.85262544  0.44924012  0.48671740    -0.06700
C1686       C  0.90266029  0.43139016  0.47586466    -0.06600
C1687       C  0.83660080  0.38030671  0.46542553    -0.32000
N1688       N  0.82620424  0.37038123  0.99897431     0.14500
C1689       C  0.84297173  0.38134452  0.02912971    -0.32000
H1690       H  0.83829889  0.37980151  0.06027455     0.16400
C1691       C  0.82516068  0.46060039  0.48168264    -0.31000
N1692       N  0.81213445  0.46943253  0.01783937     0.13200
C1693       C  0.82933603  0.46065601  0.04576154    -0.31000
C1694       C  0.92280951  0.45231031  0.46793091    -0.31300
N1695       N  0.93726914  0.46177385  0.00153453     0.13700
H1696       H  0.92446901  0.46216243  0.44089747     0.16300
C1697       C  0.92661873  0.44789268  0.03079814    -0.31300
H1698       H  0.93131399  0.45380723  0.06202699     0.16300
H1699       H  0.82271795  0.46136420  0.07683540     0.16300
H1700       H  0.82560663  0.37773236  0.43737557     0.16400
H1701       H  0.81509428  0.46188481  0.45348608     0.16300
C1702       C  0.87214223  0.42353524  0.28781726     0.30200
C1703       C  0.87544266  0.42419849  0.20819103     0.30200
C1704       C  0.86972515  0.39340118  0.26197497    -0.06000
C1705       C  0.84737570  0.44124853  0.27140818    -0.06800
C1706       C  0.89987558  0.43615353  0.27189750    -0.06600
C1707       C  0.87179439  0.39346020  0.22047633    -0.06000
C1708       C  0.84888934  0.44118431  0.23039799    -0.06700
C1709       C  0.90169119  0.43625258  0.23123103    -0.06600
C1710       C  0.85496029  0.37052237  0.20347199    -0.32000
N1711       N  0.84360756  0.35678018  0.23262593     0.14500
C1712       C  0.85141300  0.37102848  0.26811312    -0.32000
H1713       H  0.84265644  0.36674317  0.29668741     0.16400
C1714       C  0.82554913  0.45813990  0.22108138    -0.31000
N1715       N  0.81109193  0.46991483  0.25546087     0.13200
C1716       C  0.82351056  0.45895324  0.28624488    -0.31000
C1717       C  0.92336427  0.45518997  0.22372592    -0.31300
N1718       N  0.93387515  0.46733016  0.25897739     0.13700
H1719       H  0.92969056  0.46124144  0.19506385     0.16300
C1720       C  0.91973178  0.45592161  0.28865161    -0.31300
H1721       H  0.92226763  0.46303352  0.32021863     0.16300
H1722       H  0.81644224  0.46479666  0.31722427     0.16300
H1723       H  0.84892929  0.36601267  0.17260155     0.16400
H1724       H  0.82060260  0.46334605  0.19185829     0.16300
O1725       O  0.57684536  0.06476970  0.48308140    -0.80700
O1726       O  0.96605234  0.99982720  0.48135452    -0.65400
O1727       O  0.52420579  0.05496032  0.01496646    -1.12000
C1728       C  0.57234655  0.46701172  0.04685240     1.06200
O1729       O  0.96912798  0.49007151  0.04267690    -0.78600
O1730       O  0.51034668  0.49658558  0.10163875    -0.66100
Ni1731     Ni  0.53805945  0.08023362  0.47894977     1.34900
C1732       C  0.52422430  0.01982846  0.11458192     0.85000
O1733       O  0.96850284  0.06015974  0.48382757    -0.79100
O1734       O  0.49916219  0.09684647  0.47605884    -0.89400
C1735       C  0.95782586  0.48480964  0.00853562     0.84500
O1736       O  0.53552362  0.05846476  0.42514320    -0.67600
O1737       O  0.54640714  0.45776850  0.05113647    -0.86900
C1738       C  0.52262482  0.03496381  0.41212552     0.85400
C1739       C  0.97338236  0.08691520  0.47914635     1.06900
H1740       H  0.53008182  0.48712061  0.48828855     0.38700
O1741       O  0.52212737  0.49953721  0.01189441    -1.09500
O1742       O  0.53834827  0.03378019  0.08961770    -0.66200
Ni1743     Ni  0.55157820  0.02597029  0.03128202     1.26300
O1744       O  0.50881431  0.02079691  0.43708901    -0.66400
O1745       O  0.57776918  0.49372923  0.04189016    -0.78700
C1746       C  0.58900419  0.06936168  0.01664399     0.84700
O1747       O  0.58096083  0.05493849  0.04432670    -0.65900
Ni1748     Ni  0.50775828  0.47456819  0.04790154     1.27400
Ni1749     Ni  0.99510416  0.02867421  0.99513928     1.26100
H1750       H  0.51624798  0.06720796  0.03870766     0.39300
O1751       O  0.58029248  0.05929142  0.22866246    -0.80700
O1752       O  0.96520717  0.00148419  0.23480314    -0.65400
O1753       O  0.52626872  0.05424255  0.26263897    -1.12000
C1754       C  0.56892252  0.46725593  0.30239963     1.06200
O1755       O  0.96737369  0.49465297  0.29806616    -0.78600
O1756       O  0.50933116  0.50051314  0.35479067    -0.66100
Ni1757     Ni  0.54220437  0.07676078  0.22469405     1.34900
C1758       C  0.52375886  0.02352881  0.36626340     0.85000
O1759       O  0.97164089  0.06036428  0.23065592    -0.79100
O1760       O  0.50442983  0.09508705  0.22147064    -0.89400
C1761       C  0.95577881  0.48901151  0.26434150     0.84500
O1762       O  0.53754826  0.05391473  0.17245324    -0.67600
O1763       O  0.54270504  0.45890630  0.30688187    -0.86900
C1764       C  0.52340164  0.03102936  0.16056220     0.85400
C1765       C  0.97821753  0.08638791  0.22482528     1.06900
H1766       H  0.52854829  0.48572266  0.24195770     0.38700
O1767       O  0.52114133  0.49941803  0.26469354    -1.07500
O1768       O  0.53835233  0.03630377  0.34030468    -0.66200
Ni1769     Ni  0.55139707  0.02524118  0.28179419     1.26300
O1770       O  0.50921078  0.01788741  0.18650346    -0.66400
O1771       O  0.57567231  0.49310775  0.29605812    -0.78700
C1772       C  0.59267828  0.06360857  0.26204435     0.84700
O1773       O  0.58245696  0.05223387  0.29155592    -0.65900
Ni1774     Ni  0.50509273  0.47716903  0.30296580     1.27400
Ni1775     Ni  0.99594152  0.02883434  0.24491842     1.26100
H1776       H  0.51879666  0.06781029  0.28547896     0.39300
C1777       C  0.62214582  0.37052470  0.49143283     0.30200
C1778       C  0.62079718  0.37211927  0.07161941     0.30200
C1779       C  0.61536323  0.40120981  0.01633876    -0.06000
C1780       C  0.60047616  0.35010547  0.00808166    -0.06800
C1781       C  0.65166870  0.36116992  0.00859721    -0.06600
C1782       C  0.61379929  0.40158598  0.05707339    -0.06000
C1783       C  0.59997469  0.35022863  0.04882806    -0.06700
C1784       C  0.65065776  0.36191860  0.04985186    -0.06600
C1785       C  0.60099951  0.42845400  0.07391859    -0.32000
N1786       N  0.59593013  0.44519751  0.04475600     0.14500
C1787       C  0.60542154  0.42886023  0.50960627    -0.32000
H1788       H  0.60172997  0.43525060  0.48065877     0.16400
C1789       C  0.58121225  0.32820710  0.05646149    -0.31000
N1790       N  0.56955448  0.31616558  0.02158483     0.13200
C1791       C  0.58156238  0.32906059  0.49178850    -0.31000
C1792       C  0.67722385  0.35026674  0.05987182    -0.31300
N1793       N  0.69481860  0.34300907  0.02646226     0.13700
H1794       H  0.68312214  0.34652904  0.08942353     0.16300
C1795       C  0.67956501  0.34987781  0.49498575    -0.31300
H1796       H  0.68835399  0.34697998  0.46462730     0.16300
H1797       H  0.57669768  0.32363795  0.46056393     0.16300
H1798       H  0.59299447  0.43404674  0.10457260     0.16400
H1799       H  0.57609334  0.32162300  0.08519021     0.16300
C1800       C  0.62224215  0.37495379  0.24244793     0.30200
C1801       C  0.61960004  0.37187549  0.32186438     0.30200
C1802       C  0.61133222  0.40293970  0.26955394    -0.06000
C1803       C  0.60268323  0.35092528  0.25554601    -0.06800
C1804       C  0.65160422  0.36804602  0.26042904    -0.06600
C1805       C  0.60965250  0.40166337  0.31021530    -0.06000
C1806       C  0.60121740  0.34978653  0.29603760    -0.06700
C1807       C  0.65033413  0.36796922  0.30143224    -0.06600
C1808       C  0.59715514  0.42825566  0.32823366    -0.32000
N1809       N  0.59146197  0.44507513  0.29951329     0.14500
C1810       C  0.60020249  0.42981459  0.26366805    -0.32000
H1811       H  0.59587429  0.43655402  0.23505935     0.16400
C1812       C  0.58131501  0.32890701  0.30277778    -0.31000
N1813       N  0.57069255  0.31706603  0.26723259     0.13200
C1814       C  0.58424489  0.32971956  0.23807357    -0.31000
C1815       C  0.67817116  0.36203924  0.31250190    -0.31300
N1816       N  0.69568372  0.35544415  0.27921227     0.13700
H1817       H  0.68478513  0.35993979  0.34234766     0.16300
C1818       C  0.67969818  0.35882523  0.24705565    -0.31300
H1819       H  0.68730485  0.35292585  0.21627490     0.16300
H1820       H  0.58055815  0.32408296  0.20654512     0.16300
H1821       H  0.59076016  0.43448843  0.35936543     0.16400
H1822       H  0.57431724  0.32344175  0.33153548     0.16300
C1823       C  0.67881037  0.12190417  0.06374913     0.30200
C1824       C  0.67860075  0.11392468  0.48312861     0.30200
C1825       C  0.69471621  0.14539472  0.04354040    -0.06000
C1826       C  0.69259148  0.09270380  0.04281911    -0.06800
C1827       C  0.64794498  0.11972779  0.04596450    -0.06600
C1828       C  0.69493667  0.14024186  0.50264692    -0.06000
C1829       C  0.69362174  0.08875688  0.50122941    -0.06700
C1830       C  0.64824681  0.11726469  0.50405903    -0.06600
C1831       C  0.71444536  0.15842835  0.48836601    -0.32000
N1832       N  0.72554040  0.17618691  0.01927367     0.14500
C1833       C  0.71350026  0.16870538  0.05364285    -0.32000
H1834       H  0.71881789  0.17855041  0.08343827     0.16400
C1835       C  0.71136680  0.06409309  0.48924835    -0.31000
N1836       N  0.71817459  0.05179698  0.02199445     0.13200
C1837       C  0.70647855  0.06900348  0.05476523    -0.31000
C1838       C  0.62489841  0.10076845  0.49105969    -0.31300
N1839       N  0.61138313  0.09083244  0.02197031     0.13700
H1840       H  0.62108399  0.09249371  0.46012215     0.16300
C1841       C  0.62524396  0.10169544  0.05547734    -0.31300
H1842       H  0.62169489  0.09408028  0.08392766     0.16300
H1843       H  0.70974740  0.06549699  0.08522187     0.16300
H1844       H  0.72035637  0.15854470  0.45719392     0.16400
H1845       H  0.72060534  0.05684860  0.45955450     0.16300
C1846       C  0.67750722  0.12470201  0.31507368     0.30200
C1847       C  0.67930002  0.12514165  0.23516466     0.30200
C1848       C  0.68169236  0.15506505  0.30222480    -0.06000
C1849       C  0.70298795  0.10662780  0.29172334    -0.06800
C1850       C  0.65059515  0.11280859  0.29290735    -0.06600
C1851       C  0.68181575  0.15515870  0.26097754    -0.06000
C1852       C  0.70353420  0.10611920  0.25056470    -0.06700
C1853       C  0.65173182  0.11264967  0.25202488    -0.06600
C1854       C  0.69641832  0.17958189  0.25324047    -0.32000
N1855       N  0.70507402  0.19437082  0.28801017     0.14500
C1856       C  0.69793055  0.17893126  0.31768399    -0.32000
H1857       H  0.70562487  0.18364130  0.34776195     0.16400
C1858       C  0.72165157  0.08247503  0.23441831    -0.31000
N1859       N  0.73331164  0.07028138  0.26470559     0.13200
C1860       C  0.72253652  0.08518277  0.29971622    -0.31000
C1861       C  0.63119514  0.09333081  0.23618104    -0.31300
N1862       N  0.61693159  0.08272259  0.26646202     0.13700
H1863       H  0.62771179  0.08654139  0.20476516     0.16300
C1864       C  0.62880948  0.09412782  0.30122324    -0.31300
H1865       H  0.62296713  0.08814315  0.33009780     0.16300
H1866       H  0.72721694  0.07925172  0.32863396     0.16300
H1867       H  0.70248551  0.18490663  0.22405578     0.16400
H1868       H  0.72505126  0.07380005  0.20311965     0.16300
O1869       O  0.78642528  0.25130324  0.40807216    -0.80700
O1870       O  0.78024622  0.25833516  0.09435180    -0.65400
O1871       O  0.75828225  0.25861038  0.48519388    -1.12000
C1872       C  0.80300945  0.35085585  0.00562962     1.06200
O1873       O  0.75903761  0.30205220  0.11150366    -0.78600
O1874       O  0.73780341  0.33515917  0.05892712    -0.66100
Ni1875     Ni  0.77023223  0.22672740  0.44459697     1.34900
C1876       C  0.72463284  0.33096024  0.02630494     0.85000
O1877       O  0.75020703  0.21983461  0.04160890    -0.79100
O1878       O  0.75366419  0.19989386  0.47676216    -0.89400
C1879       C  0.77236779  0.27976372  0.12128490     0.84500
O1880       O  0.80901829  0.21947110  0.46110770    -0.67600
O1881       O  0.79422240  0.35150387  0.04201657    -0.86900
C1882       C  0.82119963  0.22289033  0.99452379     0.85400
C1883       C  0.74462144  0.19965028  0.01284931     1.06900
H1884       H  0.80748062  0.29101250  0.03341147     0.38700
O1885       O  0.78640214  0.29345368  0.03402775    -1.09500
O1886       O  0.73676317  0.31654733  0.49442816    -0.66200
Ni1887     Ni  0.77483394  0.29568647  0.48030669     1.26300
O1888       O  0.80787512  0.23593695  0.02632237    -0.66400
O1889       O  0.79477030  0.33185973  0.47707779    -0.78700
C1890       C  0.77238594  0.27319445  0.39839968     0.84700
O1891       O  0.76359231  0.29411704  0.42545618    -0.65900
Ni1892     Ni  0.77624150  0.32580297  0.07468573     1.27400
Ni1893     Ni  0.76954822  0.25650946  0.03913261     1.26100
H1894       H  0.73717810  0.26060832  0.48514541     0.39300
O1895       O  0.81823603  0.22645328  0.21256241    -0.80700
O1896       O  0.73929814  0.33348004  0.24771078    -0.65400
O1897       O  0.80091166  0.27761355  0.25678336    -1.12000
C1898       C  0.72099960  0.22075214  0.29116857     1.06200
O1899       O  0.72782555  0.32574648  0.30806817    -0.78600
O1900       O  0.73882557  0.28338258  0.35083330    -0.66100
Ni1901     Ni  0.82860486  0.26635971  0.21401231     1.34900
C1902       C  0.76382663  0.27264176  0.35626527     0.85000
O1903       O  0.79922464  0.33446333  0.23997360    -0.79100
O1904       O  0.83930744  0.30666484  0.21552772    -0.89400
C1905       C  0.72255981  0.33879581  0.27866392     0.84500
O1906       O  0.80560464  0.26770392  0.16833403    -0.67600
O1907       O  0.70657837  0.24516966  0.30086485    -0.86900
C1908       C  0.78140566  0.28030469  0.16333813     0.85400
C1909       C  0.82618701  0.33140435  0.22806319     1.06900
H1910       H  0.73563429  0.26771430  0.23872807     0.38700
O1911       O  0.74577805  0.27535576  0.26238901    -1.09500
O1912       O  0.78040647  0.25991706  0.32744093    -0.66200
Ni1913     Ni  0.77562182  0.24756829  0.27025377     1.26300
O1914       O  0.76617513  0.29472263  0.19240704    -0.66400
O1915       O  0.74831538  0.21860911  0.28135926    -0.78700
C1916       C  0.82426387  0.21466128  0.24282678     0.84700
O1917       O  0.80772774  0.22050636  0.27384246    -0.65900
Ni1918     Ni  0.71717308  0.28571959  0.30425146     1.27400
Ni1919     Ni  0.77123454  0.30574708  0.24993879     1.26100
H1920       H  0.81164330  0.28516209  0.28002008     0.39300
C1921       C  0.67692733  0.09379764  0.36955315    -0.08900
C1922       C  0.67463640  0.12214695  0.35875419     0.07300
C1923       C  0.66527171  0.14550773  0.38852752    -0.02700
C1924       C  0.66670530  0.14151849  0.42804064    -0.07100
C1925       C  0.67580356  0.11436691  0.43896718     0.06400
C1926       C  0.67662680  0.08952956  0.40922383    -0.02200
Br1927     Br  0.66901366  0.05029419  0.41856483    -0.01900
H1928       H  0.67755970  0.07460071  0.34679556     0.10300
H1929       H  0.66021401  0.15987564  0.45076386     0.08300
Br1930     Br  0.64496122  0.18097281  0.37937742    -0.02300
C1931       C  0.65518339  0.13692702  0.13204623    -0.08900
C1932       C  0.68034817  0.12706497  0.10858153     0.07300
C1933       C  0.70686570  0.12352998  0.12801042    -0.02700
C1934       C  0.70607168  0.12321388  0.16889936    -0.07100
C1935       C  0.67960259  0.12758622  0.19132970     0.06400
C1936       C  0.65493713  0.13833630  0.17324347    -0.02200
Br1937     Br  0.62125086  0.15747148  0.20250468    -0.01900
H1938       H  0.63569292  0.14424821  0.11862512     0.10300
H1939       H  0.72653248  0.12043767  0.18320456     0.08300
Br1940     Br  0.74511134  0.11997775  0.10188359    -0.02300
C1941       C  0.59502179  0.38226437  0.38989852    -0.08900
C1942       C  0.61767129  0.36796964  0.36511314     0.07300
C1943       C  0.63427381  0.34606648  0.38036900    -0.02700
C1944       C  0.63621526  0.34776705  0.42138672    -0.07100
C1945       C  0.61917671  0.36864351  0.44713496     0.06400
C1946       C  0.59473755  0.38151602  0.43067287    -0.02200
Br1947     Br  0.55807237  0.39275613  0.45935720    -0.01900
H1948       H  0.57653714  0.39227496  0.37736047     0.10300
H1949       H  0.64883813  0.33092979  0.43281968     0.08300
Br1950     Br  0.64901395  0.31016178  0.34860756    -0.02300
C1951       C  0.64451567  0.38618588  0.13672856    -0.08900
C1952       C  0.61977677  0.37538419  0.11642691     0.07300
C1953       C  0.59336359  0.37508774  0.13925969    -0.02700
C1954       C  0.59477391  0.37538325  0.18010691    -0.07100
C1955       C  0.62163923  0.37818469  0.19897845     0.06400
C1956       C  0.64505157  0.38912082  0.17807653    -0.02200
Br1957     Br  0.67376773  0.41470620  0.20341061    -0.01900
H1958       H  0.66278880  0.39407631  0.12065537     0.10300
H1959       H  0.57459543  0.37450497  0.19742826     0.08300
Br1960     Br  0.55478524  0.37996227  0.11950673    -0.02300
C1961       C  0.76484325  0.49226590  0.23789473    -0.08900
C1962       C  0.79085003  0.99557310  0.25957721     0.07300
C1963       C  0.79788828  0.02294329  0.28120515    -0.02700
C1964       C  0.77878708  0.04720559  0.28211762    -0.07100
C1965       C  0.75270728  0.04495618  0.26147038     0.06400
C1966       C  0.74541326  0.01758669  0.24014311    -0.02200
Br1967     Br  0.70863946  0.01194836  0.21481073    -0.01900
H1968       H  0.75937518  0.47130463  0.22121200     0.10300
H1969       H  0.78440906  0.06816813  0.29867386     0.08300
Br1970     Br  0.83413406  0.02908684  0.30781388    -0.02300
C1971       C  0.76255230  0.03448403  0.05010187    -0.08900
C1972       C  0.73987211  0.02904793  0.02338961     0.07300
C1973       C  0.73941209  0.00190808  0.99815079    -0.02700
C1974       C  0.76265865  0.48133960  0.99908481    -0.07100
C1975       C  0.78580208  0.98750268  0.02400257     0.06400
C1976       C  0.78545802  0.01412812  0.05063957    -0.02200
Br1977     Br  0.81691368  0.02584729  0.08526041    -0.01900
H1978       H  0.76314025  0.05537261  0.06944455     0.10300
H1979       H  0.76282709  0.46083599  0.97873295     0.08300
Br1980     Br  0.70807945  0.99159046  0.96303964    -0.02300
C1981       C  0.86608161  0.45034909  0.35706539    -0.08900
C1982       C  0.87256080  0.42370708  0.33226920     0.07300
C1983       C  0.88454560  0.40017164  0.34976654    -0.02700
C1984       C  0.88192454  0.40108735  0.39086280    -0.07100
C1985       C  0.87130356  0.42654292  0.41563946     0.06400
C1986       C  0.86671272  0.45245550  0.39824269    -0.02200
Br1987     Br  0.86642580  0.49213468  0.42614418    -0.01900
H1988       H  0.86259224  0.47028716  0.34423002     0.10300
H1989       H  0.89019244  0.38246225  0.40381384     0.08300
Br1990     Br  0.91022454  0.36951576  0.32188194    -0.02300
C1991       C  0.88944005  0.40048306  0.13862083    -0.08900
C1992       C  0.87938564  0.42574522  0.16445253     0.07300
C1993       C  0.87680743  0.45259665  0.14898537    -0.02700
C1994       C  0.87689608  0.45187700  0.10808173    -0.07100
C1995       C  0.88064427  0.42520129  0.08218077     0.06400
C1996       C  0.89079527  0.40014635  0.09770110    -0.02200
Br1997     Br  0.90796940  0.36542451  0.06580531    -0.01900
H1998       H  0.89682142  0.38093220  0.15008522     0.10300
H1999       H  0.87419222  0.47245304  0.09650386     0.08300
Br2000     Br  0.87506651  0.49126415  0.18032741    -0.02300
C2001       C  0.54977759  0.27089890  0.28157510    -0.08900
C2002       C  0.54797595  0.29578019  0.26216039     0.07300
C2003       C  0.52313003  0.29999477  0.23968417    -0.02700
C2004       C  0.50101065  0.27929700  0.23663026    -0.07100
C2005       C  0.50263978  0.25457892  0.25647240     0.06400
C2006       C  0.52752211  0.25037707  0.27889322    -0.02200
Br2007     Br  0.53321868  0.21633163  0.30468094    -0.01900
H2008       H  0.56877539  0.26738019  0.29877659     0.10300
H2009       H  0.98195637  0.28290707  0.21957928     0.08300
Br2010     Br  0.51683109  0.33487352  0.21577989    -0.02300
C2011       C  0.55274827  0.26523500  0.00918998    -0.08900
C2012       C  0.54627036  0.29557277  0.01686145     0.07300
C2013       C  0.51682593  0.30557105  0.51755679    -0.02700
C2014       C  0.49434973  0.28537835  0.51093350    -0.07100
C2015       C  0.50083370  0.25507603  0.00337433     0.06400
C2016       C  0.53022932  0.24504361  0.00264610    -0.02200
Br2017     Br  0.54002163  0.20379310  0.99330436    -0.01900
H2018       H  0.57531796  0.25733555  0.00823944     0.10300
H2019       H  0.97176091  0.29324580  0.51202079     0.08300
Br2020     Br  0.50662604  0.34670876  0.52756955    -0.02300
C2021       C  0.90094064  0.16731689  0.38561860    -0.08900
C2022       C  0.92586190  0.17665776  0.40641559     0.07300
C2023       C  0.95249034  0.17637321  0.38404738    -0.02700
C2024       C  0.95148341  0.17802238  0.34359041    -0.07100
C2025       C  0.92470329  0.17647745  0.32433683     0.06400
C2026       C  0.90077321  0.16546322  0.34437908    -0.02200
Br2027     Br  0.87145728  0.14114937  0.31801399    -0.01900
H2028       H  0.88223909  0.15970065  0.40113884     0.10300
H2029       H  0.97188754  0.17859229  0.32667674     0.08300
Br2030     Br  0.99019788  0.16719328  0.40372143    -0.02300
C2031       C  0.91018136  0.20518297  0.10186174    -0.08900
C2032       C  0.92677940  0.18430297  0.07566979     0.07300
C2033       C  0.95110897  0.17067450  0.09159034    -0.02700
C2034       C  0.95099951  0.16938918  0.13223403    -0.07100
C2035       C  0.92908073  0.18434812  0.15756173     0.06400
C2036       C  0.91291764  0.20681589  0.14274798    -0.02200
Br2037     Br  0.89995840  0.24325658  0.17482489    -0.01900
H2038       H  0.89740908  0.22209809  0.09080769     0.10300
H2039       H  0.96925183  0.15866264  0.14427002     0.08300
Br2040     Br  0.98745451  0.15859997  0.06244694    -0.02300
C2041       C  0.92458572  0.17996515  0.95114411     0.30200
C2042       C  0.92322664  0.18252059  0.53145272     0.30200
C2043       C  0.93020087  0.15049565  0.96624229    -0.06000
C2044       C  0.94632016  0.20100828  0.97329522    -0.06800
C2045       C  0.89517278  0.19170323  0.97285461    -0.06600
C2046       C  0.92855975  0.15143144  0.50711224    -0.06000
C2047       C  0.94579981  0.20170618  0.51410277    -0.06700
C2048       C  0.89405995  0.19301266  0.51423696    -0.06600
C2049       C  0.93882963  0.12416313  0.51468737    -0.32000
N2050       N  0.94915124  0.10780674  0.98008314     0.14500
C2051       C  0.94377519  0.12381778  0.95028844    -0.32000
H2052       H  0.95227978  0.11802044  0.91991098     0.16400
C2053       C  0.96520676  0.22249179  0.52969308    -0.31000
N2054       N  0.97753981  0.23453306  0.49931230     0.13200
C2055       C  0.96569905  0.22220996  0.96475591    -0.31000
C2056       C  0.86622398  0.20489511  0.52737781    -0.31300
N2057       N  0.85115701  0.21134663  0.49542371     0.13700
H2058       H  0.85729504  0.20819670  0.55768049     0.16300
C2059       C  0.86888096  0.20351071  0.96231252    -0.31300
H2060       H  0.86308931  0.20663334  0.93248634     0.16300
H2061       H  0.97094786  0.22818323  0.93570115     0.16300
H2062       H  0.94252981  0.11824868  0.54389040     0.16400
H2063       H  0.97001690  0.22847882  0.56085111     0.16300
C2064       C  0.92758505  0.18076794  0.70093599     0.30200
C2065       C  0.92484197  0.17935085  0.78073139     0.30200
C2066       C  0.93658396  0.15097085  0.71361107    -0.06000
C2067       C  0.94688293  0.20247963  0.72586093    -0.06800
C2068       C  0.89705285  0.18614912  0.72152091    -0.06600
C2069       C  0.93471595  0.15056806  0.75450971    -0.06000
C2070       C  0.94559043  0.20211193  0.76657978    -0.06700
C2071       C  0.89578761  0.18714267  0.76261837    -0.06600
C2072       C  0.94617632  0.12412249  0.76170189    -0.32000
N2073       N  0.95535913  0.10823228  0.72648914     0.14500
C2074       C  0.94962380  0.12426308  0.69685428    -0.32000
H2075       H  0.95664702  0.11760744  0.66603903     0.16400
C2076       C  0.96541280  0.22242315  0.78283101    -0.31000
N2077       N  0.97931239  0.23388666  0.75276327     0.13200
C2078       C  0.96776820  0.22206965  0.71784591    -0.31000
C2079       C  0.86773367  0.19685237  0.77563298    -0.31300
N2080       N  0.85174428  0.19923726  0.74315494     0.13700
H2081       H  0.85996973  0.20313931  0.80628888     0.16300
C2082       C  0.86926112  0.19188567  0.71006473    -0.31300
H2083       H  0.86261147  0.19297436  0.67994556     0.16300
H2084       H  0.97473836  0.22668387  0.68863260     0.16300
H2085       H  0.95073161  0.11831032  0.79076994     0.16400
H2086       H  0.96967446  0.22831420  0.81415149     0.16300
C2087       C  0.87661673  0.42516868  0.53836804     0.30200
C2088       C  0.87158416  0.42617784  0.95996506     0.30200
C2089       C  0.86470830  0.39739162  0.51554288    -0.06000
C2090       C  0.85529363  0.44896744  0.52751386    -0.06800
C2091       C  0.90498203  0.42967930  0.51637801    -0.06600
C2092       C  0.86136041  0.39727024  0.97457150    -0.06000
C2093       C  0.85262491  0.44924003  0.98671728    -0.06700
C2094       C  0.90265998  0.43139063  0.97586480    -0.06600
C2095       C  0.83660114  0.38030640  0.96542559    -0.32000
N2096       N  0.82620376  0.37038153  0.49897416     0.14500
C2097       C  0.84297131  0.38134464  0.52912962    -0.32000
H2098       H  0.83829845  0.37980156  0.56027445     0.16400
C2099       C  0.82516018  0.46060027  0.98168241    -0.31000
N2100       N  0.81213494  0.46943250  0.51783961     0.13200
C2101       C  0.82933659  0.46065601  0.54576172    -0.31000
C2102       C  0.92280929  0.45231063  0.96793086    -0.31300
N2103       N  0.93726926  0.46177357  0.50153462     0.13700
H2104       H  0.92446887  0.46216258  0.94089728     0.16300
C2105       C  0.92661899  0.44789216  0.53079808    -0.31300
H2106       H  0.93131416  0.45380670  0.56202695     0.16300
H2107       H  0.82271852  0.46136402  0.57683554     0.16300
H2108       H  0.82560693  0.37773185  0.93737566     0.16400
H2109       H  0.81509384  0.46188473  0.95348581     0.16300
C2110       C  0.87214300  0.42353527  0.78781737     0.30200
C2111       C  0.87544359  0.42419841  0.70819112     0.30200
C2112       C  0.86972633  0.39340110  0.76197515    -0.06000
C2113       C  0.84737632  0.44124823  0.77140808    -0.06800
C2114       C  0.89987621  0.43615384  0.77189774    -0.06600
C2115       C  0.87179562  0.39346013  0.72047650    -0.06000
C2116       C  0.84889007  0.44118401  0.73039793    -0.06700
C2117       C  0.90169193  0.43625281  0.73123127    -0.06600
C2118       C  0.85496159  0.37052226  0.70347215    -0.32000
N2119       N  0.84360888  0.35678005  0.73262604     0.14500
C2120       C  0.85141428  0.37102830  0.76811325    -0.32000
H2121       H  0.84265770  0.36674293  0.79668747     0.16400
C2122       C  0.82554989  0.45813963  0.72108124    -0.31000
N2123       N  0.81109258  0.46991454  0.75546067     0.13200
C2124       C  0.82351114  0.45895292  0.78624468    -0.31000
C2125       C  0.92336504  0.45519015  0.72372617    -0.31300
N2126       N  0.93387581  0.46733043  0.75897768     0.13700
H2127       H  0.92969143  0.46124150  0.69506407     0.16300
C2128       C  0.91973237  0.45592192  0.78865192    -0.31300
H2129       H  0.92226819  0.46303383  0.82021896     0.16300
H2130       H  0.81644277  0.46479644  0.81722403     0.16300
H2131       H  0.84893054  0.36601256  0.67260169     0.16400
H2132       H  0.82060351  0.46334584  0.69185815     0.16300
O2133       O  0.57684541  0.06476945  0.98308128    -0.80700
O2134       O  0.96605216  0.99982787  0.98135400    -0.65400
O2135       O  0.52420583  0.05496012  0.51496685    -1.12000
C2136       C  0.57234647  0.46701206  0.54685177     1.06200
O2137       O  0.96912777  0.49007157  0.54267718    -0.78600
O2138       O  0.51034678  0.49658591  0.60163890    -0.66100
Ni2139     Ni  0.53805966  0.08023364  0.97894930     1.34900
C2140       C  0.52422482  0.01982827  0.61458202     0.85000
O2141       O  0.96850297  0.06016019  0.98382660    -0.79100
O2142       O  0.49916253  0.09684661  0.97605776    -0.89400
C2143       C  0.95782562  0.48480969  0.50853592     0.84500
O2144       O  0.53552391  0.05846481  0.92514276    -0.67600
O2145       O  0.54640711  0.45776880  0.55113614    -0.86900
C2146       C  0.52262504  0.03496393  0.91212515     0.85400
C2147       C  0.97338258  0.08691552  0.97914491     1.06900
H2148       H  0.53008218  0.48712034  0.98828857     0.38700
O2149       O  0.52212703  0.49953752  0.51189444    -1.09500
O2150       O  0.53834877  0.03378000  0.58961783    -0.66200
Ni2151     Ni  0.55157848  0.02597023  0.53128208     1.26300
O2152       O  0.50881447  0.02079707  0.93708861    -0.66400
O2153       O  0.57776900  0.49372966  0.54188981    -0.78700
C2154       C  0.58900424  0.06936188  0.51664405     0.84700
O2155       O  0.58096097  0.05493859  0.54432672    -0.65900
Ni2156     Ni  0.50775818  0.47456844  0.54790168     1.27400
Ni2157     Ni  0.99510425  0.02867373  0.49513975     1.26100
H2158       H  0.51624800  0.06720766  0.53870804     0.39300
O2159       O  0.58029310  0.05929128  0.72866264    -0.80700
O2160       O  0.96520755  0.00148443  0.73480307    -0.65400
O2161       O  0.52626922  0.05424279  0.76263881    -1.12000
C2162       C  0.56892356  0.46725656  0.80239934     1.06200
O2163       O  0.96737453  0.49465302  0.79806637    -0.78600
O2164       O  0.50933222  0.50051305  0.85479053    -0.66100
Ni2165     Ni  0.54220514  0.07676073  0.72469373     1.34900
C2166       C  0.52375911  0.02352891  0.86626312     0.85000
O2167       O  0.97164147  0.06036459  0.73065583    -0.79100
O2168       O  0.50443074  0.09508706  0.72146975    -0.89400
C2169       C  0.95577950  0.48901174  0.76434180     0.84500
O2170       O  0.53754912  0.05391439  0.67245318    -0.67600
O2171       O  0.54270616  0.45890665  0.80688146    -0.86900
C2172       C  0.52340221  0.03102921  0.66056222     0.85400
C2173       C  0.97821828  0.08638810  0.72482470     1.06900
H2174       H  0.52854893  0.48572328  0.74195759     0.38700
O2175       O  0.52114199  0.49941854  0.76469349    -1.07500
O2176       O  0.53835247  0.03630399  0.84030445    -0.66200
Ni2177     Ni  0.55139742  0.02524144  0.78179419     1.26300
O2178       O  0.50921113  0.01788748  0.68650348    -0.66400
O2179       O  0.57567308  0.49310845  0.79605786    -0.78700
C2180       C  0.59267869  0.06360875  0.76204462     0.84700
O2181       O  0.58245729  0.05223413  0.79155621    -0.65900
Ni2182     Ni  0.50509371  0.47716923  0.80296562     1.27400
Ni2183     Ni  0.99594198  0.02883453  0.74491836     1.26100
H2184       H  0.51879723  0.06781068  0.78547879     0.39300
C2185       C  0.62214629  0.37052499  0.99143269     0.30200
C2186       C  0.62079692  0.37212017  0.57161976     0.30200
C2187       C  0.61536305  0.40120985  0.51633835    -0.06000
C2188       C  0.60047570  0.35010549  0.50808240    -0.06800
C2189       C  0.65166819  0.36116953  0.50859729    -0.06600
C2190       C  0.61379952  0.40158664  0.55707310    -0.06000
C2191       C  0.59997369  0.35022986  0.54882909    -0.06700
C2192       C  0.65065731  0.36191867  0.54985201    -0.06600
C2193       C  0.60099991  0.42845481  0.57391797    -0.32000
N2194       N  0.59593010  0.44519786  0.54475503     0.14500
C2195       C  0.60542208  0.42886041  0.00960716    -0.32000
H2196       H  0.60173107  0.43525131  0.98065983     0.16400
C2197       C  0.58121038  0.32820924  0.55646324    -0.31000
N2198       N  0.56955383  0.31616610  0.52158643     0.13200
C2199       C  0.58156202  0.32906151  0.99178750    -0.31000
C2200       C  0.67722339  0.35026678  0.55987205    -0.31300
N2201       N  0.69481808  0.34300873  0.52646251     0.13700
H2202       H  0.68312175  0.34652945  0.58942387     0.16300
C2203       C  0.67956559  0.34987845  0.99498561    -0.31300
H2204       H  0.68835462  0.34698089  0.96462718     0.16300
H2205       H  0.57669635  0.32364018  0.96056310     0.16300
H2206       H  0.59299511  0.43404790  0.60457205     0.16400
H2207       H  0.57609088  0.32162607  0.58519234     0.16300
C2208       C  0.62224432  0.37495515  0.74244801     0.30200
C2209       C  0.61960186  0.37187653  0.82186430     0.30200
C2210       C  0.61133408  0.40294088  0.76955407    -0.06000
C2211       C  0.60268550  0.35092643  0.75554571    -0.06800
C2212       C  0.65160636  0.36804759  0.76042929    -0.06600
C2213       C  0.60965419  0.40166444  0.81021537    -0.06000
C2214       C  0.60121948  0.34978754  0.79603720    -0.06700
C2215       C  0.65033607  0.36797053  0.80143246    -0.06600
C2216       C  0.59715653  0.42825666  0.82823366    -0.32000
N2217       N  0.59146328  0.44507606  0.79951325     0.14500
C2218       C  0.60020415  0.42981565  0.76366810    -0.32000
H2219       H  0.59587603  0.43655503  0.73505935     0.16400
C2220       C  0.58131696  0.32890805  0.80277705    -0.31000
N2221       N  0.57069463  0.31706720  0.76723174     0.13200
C2222       C  0.58424712  0.32972083  0.73807296    -0.31000
C2223       C  0.67817297  0.36204002  0.81250216    -0.31300
N2224       N  0.69568553  0.35544479  0.77921257     0.13700
H2225       H  0.68478680  0.35994015  0.84234786     0.16300
C2226       C  0.67970020  0.35882637  0.74705595    -0.31300
H2227       H  0.68730684  0.35292683  0.71627521     0.16300
H2228       H  0.58056046  0.32408440  0.70654446     0.16300
H2229       H  0.59076143  0.43448944  0.85936538     0.16400
H2230       H  0.57431907  0.32344268  0.83153466     0.16300
C2231       C  0.67881049  0.12190424  0.56374917     0.30200
C2232       C  0.67860084  0.11392435  0.98312855     0.30200
C2233       C  0.69471639  0.14539479  0.54354052    -0.06000
C2234       C  0.69259141  0.09270384  0.54281893    -0.06800
C2235       C  0.64794504  0.11972800  0.54596466    -0.06600
C2236       C  0.69493665  0.14024162  0.00264682    -0.06000
C2237       C  0.69362194  0.08875668  0.00122957    -0.06700
C2238       C  0.64824689  0.11726429  0.00405889    -0.06600
C2239       C  0.71444529  0.15842810  0.98836583    -0.32000
N2240       N  0.72554070  0.17618692  0.51927393     0.14500
C2241       C  0.71350064  0.16870524  0.55364306    -0.32000
H2242       H  0.71881847  0.17855004  0.58343848     0.16400
C2243       C  0.71136725  0.06409300  0.98924883    -0.31000
N2244       N  0.71817412  0.05179684  0.52199382     0.13200
C2245       C  0.70647825  0.06900328  0.55476478    -0.31000
C2246       C  0.62489855  0.10076796  0.99105956    -0.31300
N2247       N  0.61138316  0.09083269  0.52197038     0.13700
H2248       H  0.62108429  0.09249297  0.96012202     0.16300
C2249       C  0.62524410  0.10169553  0.55547739    -0.31300
H2250       H  0.62169515  0.09408019  0.58392762     0.16300
H2251       H  0.70974710  0.06549658  0.58522134     0.16300
H2252       H  0.72035641  0.15854430  0.95719374     0.16400
H2253       H  0.72060590  0.05684837  0.95955508     0.16300
C2254       C  0.67750757  0.12470171  0.81507357     0.30200
C2255       C  0.67930007  0.12514147  0.73516454     0.30200
C2256       C  0.68169436  0.15506448  0.80222455    -0.06000
C2257       C  0.70298711  0.10662606  0.79172262    -0.06800
C2258       C  0.65059458  0.11280999  0.79290787    -0.06600
C2259       C  0.68181763  0.15515818  0.76097743    -0.06000
C2260       C  0.70353316  0.10611753  0.75056409    -0.06700
C2261       C  0.65173108  0.11265115  0.75202525    -0.06600
C2262       C  0.69642024  0.17958125  0.75324013    -0.32000
N2263       N  0.70507611  0.19437011  0.78800979     0.14500
C2264       C  0.69793264  0.17893061  0.81768375    -0.32000
H2265       H  0.70562669  0.18364087  0.84776183     0.16400
C2266       C  0.72165107  0.08247391  0.73441741    -0.31000
N2267       N  0.73331127  0.07028024  0.76470460     0.13200
C2268       C  0.72253608  0.08518137  0.79971534    -0.31000
C2269       C  0.63119495  0.09333163  0.73618147    -0.31300
N2270       N  0.61693166  0.08272317  0.76646240     0.13700
H2271       H  0.62771194  0.08654182  0.70476562     0.16300
C2272       C  0.62880943  0.09412857  0.80122359    -0.31300
H2273       H  0.62296753  0.08814342  0.83009803     0.16300
H2274       H  0.72721700  0.07925058  0.82863306     0.16300
H2275       H  0.70248701  0.18490614  0.72405537     0.16400
H2276       H  0.72505121  0.07379939  0.70311866     0.16300
O2277       O  0.78642576  0.25130310  0.90807228    -0.80700
O2278       O  0.78024661  0.25833535  0.59435185    -0.65400
O2279       O  0.75828236  0.25861035  0.98519370    -1.12000
C2280       C  0.80300892  0.35085617  0.50562941     1.06200
O2281       O  0.75903805  0.30205239  0.61150400    -0.78600
O2282       O  0.73780294  0.33515885  0.55892747    -0.66100
Ni2283     Ni  0.77023212  0.22672736  0.94459672     1.34900
C2284       C  0.72463240  0.33096002  0.52630524     0.85000
O2285       O  0.75020719  0.21983470  0.54160921    -0.79100
O2286       O  0.75366353  0.19989402  0.97676173    -0.89400
C2287       C  0.77236842  0.27976393  0.62128502     0.84500
O2288       O  0.80901799  0.21947051  0.96110765    -0.67600
O2289       O  0.79422168  0.35150432  0.54201632    -0.86900
C2290       C  0.82119987  0.22289077  0.49452389     0.85400
C2291       C  0.74462184  0.19965025  0.51284966     1.06900
H2292       H  0.80748056  0.29101281  0.53341128     0.38700
O2293       O  0.78640207  0.29345389  0.53402774    -1.09500
O2294       O  0.73676346  0.31654726  0.99442796    -0.66200
Ni2295     Ni  0.77483422  0.29568634  0.98030662     1.26300
O2296       O  0.80787526  0.23593718  0.52632250    -0.66400
O2297       O  0.79477064  0.33185958  0.97707792    -0.78700
C2298       C  0.77238656  0.27319430  0.89839959     0.84700
O2299       O  0.76359276  0.29411691  0.92545599    -0.65900
Ni2300     Ni  0.77624133  0.32580321  0.57468570     1.27400
Ni2301     Ni  0.76954831  0.25650959  0.53913278     1.26100
H2302       H  0.73717829  0.26060845  0.98514520     0.39300
O2303       O  0.81823727  0.22645331  0.71256244    -0.80700
O2304       O  0.73929960  0.33348002  0.74771116    -0.65400
O2305       O  0.80091308  0.27761356  0.75678327    -1.12000
C2306       C  0.72100132  0.22075165  0.79116810     1.06200
O2307       O  0.72782645  0.32574609  0.80806826    -0.78600
O2308       O  0.73882633  0.28338180  0.85083279    -0.66100
Ni2309     Ni  0.82860605  0.26635970  0.71401192     1.34900
C2310       C  0.76382757  0.27264153  0.85626508     0.85000
O2311       O  0.79922599  0.33446329  0.73997394    -0.79100
O2312       O  0.83930858  0.30666482  0.71552710    -0.89400
C2313       C  0.72256118  0.33879577  0.77866417     0.84500
O2314       O  0.80560548  0.26770378  0.66833386    -0.67600
O2315       O  0.70657971  0.24516903  0.80086355    -0.86900
C2316       C  0.78140660  0.28030483  0.66333814     0.85400
C2317       C  0.82618826  0.33140430  0.72806313     1.06900
H2318       H  0.73563599  0.26771397  0.73872764     0.38700
O2319       O  0.74577952  0.27535553  0.76238877    -1.09500
O2320       O  0.78040787  0.25991730  0.82744094    -0.66200
Ni2321     Ni  0.77562344  0.24756823  0.77025383     1.26300
O2322       O  0.76617637  0.29472296  0.69240717    -0.66400
O2323       O  0.74831724  0.21860891  0.78135955    -0.78700
C2324       C  0.82426554  0.21466156  0.74282684     0.84700
O2325       O  0.80772957  0.22050661  0.77384269    -0.65900
Ni2326     Ni  0.71717418  0.28571906  0.80425077     1.27400
Ni2327     Ni  0.77123593  0.30574702  0.74993890     1.26100
H2328       H  0.81164480  0.28516214  0.78001993     0.39300
C2329       C  0.67692772  0.09379733  0.86955307    -0.08900
C2330       C  0.67463702  0.12214665  0.85875407     0.07300
C2331       C  0.66527225  0.14550744  0.88852731    -0.02700
C2332       C  0.66670548  0.14151816  0.92804048    -0.07100
C2333       C  0.67580374  0.11436656  0.93896708     0.06400
C2334       C  0.67662718  0.08952924  0.90922372    -0.02200
Br2335     Br  0.66901449  0.05029377  0.91856456    -0.01900
H2336       H  0.67755988  0.07460038  0.84679553     0.10300
H2337       H  0.66021409  0.15987532  0.95076363     0.08300
Br2338     Br  0.64496250  0.18097277  0.87937678    -0.02300
C2339       C  0.65518364  0.13692728  0.63204626    -0.08900
C2340       C  0.68034834  0.12706496  0.60858152     0.07300
C2341       C  0.70686585  0.12352971  0.62801039    -0.02700
C2342       C  0.70607176  0.12321359  0.66889935    -0.07100
C2343       C  0.67960266  0.12758614  0.69132964     0.06400
C2344       C  0.65493742  0.13833661  0.67324347    -0.02200
Br2345     Br  0.62125158  0.15747264  0.70250470    -0.01900
H2346       H  0.63569322  0.14424867  0.61862521     0.10300
H2347       H  0.72653248  0.12043709  0.68320461     0.08300
Br2348     Br  0.74511149  0.11997675  0.60188355    -0.02300
C2349       C  0.59502324  0.38226525  0.88989803    -0.08900
C2350       C  0.61767278  0.36797045  0.86511293     0.07300
C2351       C  0.63427502  0.34606715  0.88036886    -0.02700
C2352       C  0.63621604  0.34776753  0.92138665    -0.07100
C2353       C  0.61917755  0.36864415  0.94713478     0.06400
C2354       C  0.59473874  0.38151701  0.93067238    -0.02200
Br2355     Br  0.55807358  0.39275783  0.95935597    -0.01900
H2356       H  0.57653871  0.39227587  0.87735977     0.10300
H2357       H  0.64883867  0.33093014  0.93281971     0.08300
Br2358     Br  0.64901541  0.31016262  0.84860726    -0.02300
C2359       C  0.64451664  0.38618708  0.63672805    -0.08900
C2360       C  0.61977723  0.37538569  0.61642729     0.07300
C2361       C  0.59336443  0.37508975  0.63926103    -0.02700
C2362       C  0.59477543  0.37538535  0.68010810    -0.07100
C2363       C  0.62164113  0.37818621  0.69897867     0.06400
C2364       C  0.64505337  0.38912189  0.67807601    -0.02200
Br2365     Br  0.67377026  0.41470687  0.70340908    -0.01900
H2366       H  0.66278957  0.39407725  0.62065422     0.10300
H2367       H  0.57459717  0.37450752  0.69743010     0.08300
Br2368     Br  0.55478588  0.37996554  0.61950996    -0.02300
C2369       C  0.76484386  0.49226573  0.73789485    -0.08900
C2370       C  0.79085017  0.99557245  0.75957602     0.07300
C2371       C  0.79788833  0.02294265  0.78120390    -0.02700
C2372       C  0.77878703  0.04720486  0.78211639    -0.07100
C2373       C  0.75270719  0.04495527  0.76146917     0.06400
C2374       C  0.74541329  0.01758574  0.74014187    -0.02200
Br2375     Br  0.70863949  0.01194719  0.71480953    -0.01900
H2376       H  0.75937574  0.47130450  0.72121204     0.10300
H2377       H  0.78440893  0.06816742  0.79867263     0.08300
Br2378     Br  0.83413425  0.02908631  0.80781237    -0.02300
C2379       C  0.76255170  0.03448377  0.55010140    -0.08900
C2380       C  0.73987171  0.02904779  0.52338878     0.07300
C2381       C  0.73941201  0.00190816  0.49814942    -0.02700
C2382       C  0.76265896  0.48133889  0.49908502    -0.07100
C2383       C  0.78580195  0.98750284  0.52400146     0.06400
C2384       C  0.78545757  0.01412807  0.55063889    -0.02200
Br2385     Br  0.81691317  0.02584747  0.58525978    -0.01900
H2386       H  0.76313945  0.05537219  0.56944448     0.10300
H2387       H  0.76282767  0.46083529  0.47873305     0.08300
Br2388     Br  0.70807957  0.99159065  0.46303788    -0.02300
C2389       C  0.86608179  0.45034919  0.85706541    -0.08900
C2390       C  0.87256138  0.42370721  0.83226933     0.07300
C2391       C  0.88454626  0.40017193  0.84976682    -0.02700
C2392       C  0.88192485  0.40108760  0.89086303    -0.07100
C2393       C  0.87130344  0.42654305  0.91563951     0.06400
C2394       C  0.86671249  0.45245562  0.89824272    -0.02200
Br2395     Br  0.86642508  0.49213487  0.92614415    -0.01900
H2396       H  0.86259245  0.47028723  0.84422997     0.10300
H2397       H  0.89019293  0.38246261  0.90381418     0.08300
Br2398     Br  0.91022616  0.36951673  0.82188274    -0.02300
C2399       C  0.88944067  0.40048286  0.63862087    -0.08900
C2400       C  0.87938654  0.42574510  0.66445258     0.07300
C2401       C  0.87680821  0.45259645  0.64898529    -0.02700
C2402       C  0.87689668  0.45187670  0.60808162    -0.07100
C2403       C  0.88064458  0.42520092  0.58218072     0.06400
C2404       C  0.89079543  0.40014594  0.59770110    -0.02200
Br2405     Br  0.90796850  0.36542351  0.56580549    -0.01900
H2406       H  0.89682210  0.38093202  0.65008528     0.10300
H2407       H  0.87419285  0.47245274  0.59650372     0.08300
Br2408     Br  0.87506715  0.49126398  0.68032713    -0.02300
C2409       C  0.54977995  0.27089993  0.78157410    -0.08900
C2410       C  0.54797823  0.29578115  0.76215927     0.07300
C2411       C  0.52313234  0.29999549  0.73968287    -0.02700
C2412       C  0.50101292  0.27929772  0.73662928    -0.07100
C2413       C  0.50264206  0.25457982  0.75647177     0.06400
C2414       C  0.52752455  0.25037805  0.77889235    -0.02200
Br2415     Br  0.53322144  0.21633257  0.80467976    -0.01900
H2416       H  0.56877778  0.26738137  0.79877561     0.10300
H2417       H  0.98195847  0.28290739  0.71957805     0.08300
Br2418     Br  0.51683347  0.33487381  0.71577775    -0.02300
C2419       C  0.55275000  0.26523623  0.50914521    -0.08900
C2420       C  0.54627032  0.29557259  0.51686287     0.07300
C2421       C  0.51682828  0.30557192  0.01751119    -0.02700
C2422       C  0.49435246  0.28537877  0.01088767    -0.07100
C2423       C  0.50083279  0.25507692  0.50337406     0.06400
C2424       C  0.53023070  0.24504518  0.50260129    -0.02200
Br2425     Br  0.54002567  0.20379573  0.49320676    -0.01900
H2426       H  0.57532129  0.25733760  0.50816091     0.10300
H2427       H  0.97176565  0.29324713  0.01193260     0.08300
Br2428     Br  0.50663068  0.34671105  0.02747317    -0.02300
C2429       C  0.90094152  0.16731776  0.88561778    -0.08900
C2430       C  0.92586239  0.17665906  0.90641544     0.07300
C2431       C  0.95249117  0.17637480  0.88404790    -0.02700
C2432       C  0.95148480  0.17802359  0.84359080    -0.07100
C2433       C  0.92470497  0.17647814  0.82433652     0.06400
C2434       C  0.90077474  0.16546376  0.84437822    -0.02200
Br2435     Br  0.87145922  0.14114965  0.81801247    -0.01900
H2436       H  0.88223981  0.15970141  0.90113758     0.10300
H2437       H  0.97188912  0.17859375  0.82667767     0.08300
Br2438     Br  0.99019880  0.16719660  0.90372355    -0.02300
C2439       C  0.91018193  0.20518364  0.60186225    -0.08900
C2440       C  0.92677987  0.18430373  0.57567003     0.07300
C2441       C  0.95111010  0.17067578  0.59158992    -0.02700
C2442       C  0.95100116  0.16939025  0.63223355    -0.07100
C2443       C  0.92908257  0.18434910  0.65756166     0.06400
C2444       C  0.91291924  0.20681688  0.64274833    -0.02200
Br2445     Br  0.89996151  0.24325798  0.67482543    -0.01900
H2446       H  0.89740920  0.22209856  0.59080849     0.10300
H2447       H  0.96925365  0.15866367  0.64426914     0.08300
Br2448     Br  0.98745568  0.15860265  0.56244544    -0.02300
C2449       C  0.92457489  0.67927575  0.45181285     0.30200
C2450       C  0.92254170  0.68067314  0.03191245     0.30200
C2451       C  0.92913759  0.64937938  0.46612426    -0.06000
C2452       C  0.94674303  0.69929996  0.47465068    -0.06800
C2453       C  0.89533136  0.69156476  0.47343542    -0.06600
C2454       C  0.92696194  0.64970756  0.00690683    -0.06000
C2455       C  0.94594447  0.69936668  0.01526110    -0.06700
C2456       C  0.89385717  0.69230382  0.01471146    -0.06600
C2457       C  0.93678502  0.62217412  0.01392179    -0.32000
N2458       N  0.94797118  0.60649095  0.47934742     0.14500
C2459       C  0.94322020  0.62303877  0.44996960    -0.32000
H2460       H  0.95263238  0.61794658  0.41996920     0.16400
C2461       C  0.96560832  0.71965295  0.03152111    -0.31000
N2462       N  0.97880411  0.73172966  0.00166380     0.13200
C2463       C  0.96638470  0.72045315  0.46698802    -0.31000
C2464       C  0.86602824  0.70427317  0.02767063    -0.31300
N2465       N  0.85130630  0.71124595  0.99568558     0.13700
H2466       H  0.85683757  0.70711217  0.05783453     0.16300
C2467       C  0.86925667  0.70369630  0.46275392    -0.31300
H2468       H  0.86369309  0.70703190  0.43292212     0.16300
H2469       H  0.97135465  0.72716528  0.43829084     0.16300
H2470       H  0.93986945  0.61575323  0.04298729     0.16400
H2471       H  0.96936982  0.72579420  0.06297032     0.16300
C2472       C  0.92802003  0.68027567  0.20163396     0.30200
C2473       C  0.92510158  0.67922034  0.28145799     0.30200
C2474       C  0.93677620  0.65051218  0.21457136    -0.06000
C2475       C  0.94742232  0.70200233  0.22644229    -0.06800
C2476       C  0.89748790  0.68588106  0.22208478    -0.06600
C2477       C  0.93492291  0.65030618  0.25549390    -0.06000
C2478       C  0.94598631  0.70181722  0.26719796    -0.06700
C2479       C  0.89613420  0.68706814  0.26319236    -0.06600
C2480       C  0.94634939  0.62387973  0.26287367    -0.32000
N2481       N  0.95534191  0.60779231  0.22770025     0.14500
C2482       C  0.94950548  0.62363628  0.19795317    -0.32000
H2483       H  0.95625607  0.61664813  0.16711602     0.16400
C2484       C  0.96571555  0.72220957  0.28348095    -0.31000
N2485       N  0.97977096  0.73353552  0.25343534     0.13200
C2486       C  0.96837129  0.72157236  0.21845432    -0.31000
C2487       C  0.86810046  0.69693987  0.27603270    -0.31300
N2488       N  0.85221251  0.69923305  0.24343585     0.13700
H2489       H  0.86028121  0.70337328  0.30663900     0.16300
C2490       C  0.86976463  0.69167147  0.21044556    -0.31300
H2491       H  0.86318468  0.69263623  0.18026618     0.16300
H2492       H  0.97543002  0.72612082  0.18924443     0.16300
H2493       H  0.95099819  0.61820398  0.29198464     0.16400
H2494       H  0.96977866  0.72829734  0.31483032     0.16300
C2495       C  0.87648805  0.92536104  0.03848578     0.30200
C2496       C  0.87160454  0.92632366  0.46004733     0.30200
C2497       C  0.86493107  0.89740481  0.01557462    -0.06000
C2498       C  0.85491009  0.94889266  0.02750349    -0.06800
C2499       C  0.90482899  0.93026878  0.01666149    -0.06600
C2500       C  0.86161555  0.89727979  0.47457768    -0.06000
C2501       C  0.85234641  0.94915170  0.48670585    -0.06700
C2502       C  0.90258530  0.93190738  0.47613945    -0.06600
C2503       C  0.83691033  0.88019671  0.46540163    -0.32000
N2504       N  0.82653064  0.87017228  0.99890400     0.14500
C2505       C  0.84327579  0.88117426  0.02907631    -0.32000
H2506       H  0.83857700  0.87960817  0.06020723     0.16400
C2507       C  0.82487981  0.96041354  0.48147609    -0.31000
N2508       N  0.81172652  0.96919020  0.01756384     0.13200
C2509       C  0.82886766  0.96046261  0.04560326    -0.31000
C2510       C  0.92267893  0.95290582  0.46821487    -0.31300
N2511       N  0.93706262  0.96249160  0.00185604     0.13700
H2512       H  0.92445338  0.96261361  0.44107492     0.16300
C2513       C  0.92633341  0.94865882  0.03115072    -0.31300
H2514       H  0.93099285  0.95459307  0.06238784     0.16300
H2515       H  0.82221277  0.96125155  0.07667861     0.16300
H2516       H  0.82590037  0.87765680  0.43736460     0.16400
H2517       H  0.81493843  0.96175836  0.45321141     0.16300
C2518       C  0.87197984  0.92405008  0.28799852     0.30200
C2519       C  0.87512356  0.92472165  0.20837668     0.30200
C2520       C  0.86936910  0.89391666  0.26214382    -0.06000
C2521       C  0.84725636  0.94191909  0.27172743    -0.06800
C2522       C  0.89975309  0.93656200  0.27195737    -0.06600
C2523       C  0.87133602  0.89400414  0.22068181    -0.06000
C2524       C  0.84869552  0.94188216  0.23071490    -0.06700
C2525       C  0.90150679  0.93661988  0.23127707    -0.06600
C2526       C  0.85459252  0.87098746  0.20367053    -0.32000
N2527       N  0.84342173  0.85709591  0.23280471     0.14500
C2528       C  0.85121540  0.87139717  0.26830578    -0.32000
H2529       H  0.84260927  0.86699932  0.29690038     0.16400
C2530       C  0.82544580  0.95904494  0.22154807    -0.31000
N2531       N  0.81109427  0.97085661  0.25600407     0.13200
C2532       C  0.82351969  0.95978307  0.28669848    -0.31000
C2533       C  0.92318963  0.95553872  0.22366525    -0.31300
N2534       N  0.93372741  0.96777309  0.25885461     0.13700
H2535       H  0.92950681  0.96150988  0.19495480     0.16300
C2536       C  0.91959464  0.95641928  0.28859720    -0.31300
H2537       H  0.92213146  0.96361540  0.32014409     0.16300
H2538       H  0.81652085  0.96562460  0.31770410     0.16300
H2539       H  0.84855449  0.86646394  0.17280388     0.16400
H2540       H  0.82047666  0.96432166  0.19236857     0.16300
O2541       O  0.57621782  0.56519104  0.48316831    -0.80700
O2542       O  0.96608214  0.49914796  0.48105092    -0.65400
O2543       O  0.52367828  0.55472210  0.01511266    -1.12000
C2544       C  0.57266732  0.96722063  0.04708149     1.06200
O2545       O  0.96936906  0.99035727  0.04279359    -0.78600
O2546       O  0.51065881  0.99673553  0.10149195    -0.66100
Ni2547     Ni  0.53722576  0.58019974  0.47915271     1.34900
C2548       C  0.52401631  0.51961016  0.11476966     0.85000
O2549       O  0.96794461  0.55925327  0.48353262    -0.79100
O2550       O  0.49813423  0.59634074  0.47612470    -0.89400
C2551       C  0.95786173  0.98535279  0.00876591     0.84500
O2552       O  0.53495975  0.55842849  0.42533608    -0.67600
O2553       O  0.54671953  0.95787118  0.05099795    -0.86900
C2554       C  0.52241106  0.53472876  0.41230758     0.85400
C2555       C  0.97248907  0.58603047  0.47884566     1.06900
H2556       H  0.53023245  0.98739908  0.48812991     0.38700
O2557       O  0.52232771  0.99979091  0.01178772    -1.09500
O2558       O  0.53816935  0.53354087  0.08978461    -0.66200
Ni2559     Ni  0.55125701  0.52584454  0.03132556     1.26300
O2560       O  0.50876275  0.52039848  0.43720524    -0.66400
O2561       O  0.57800763  0.99392231  0.04209774    -0.78700
C2562       C  0.58853195  0.56956110  0.01663116     0.84700
O2563       O  0.58059057  0.55498477  0.04423678    -0.65900
Ni2564     Ni  0.50802125  0.97474759  0.04777963     1.27400
Ni2565     Ni  0.99481013  0.52817985  0.99509719     1.26100
H2566       H  0.51561282  0.56685715  0.03888096     0.39300
O2567       O  0.58030111  0.55871575  0.22879085    -0.80700
O2568       O  0.96535494  0.50103943  0.23507976    -0.65400
O2569       O  0.52637298  0.55374077  0.26300952    -1.12000
C2570       C  0.56891706  0.96759758  0.30162803     1.06200
O2571       O  0.96732903  0.99509687  0.29779975    -0.78600
O2572       O  0.50941500  0.00077581  0.35449976    -0.66100
Ni2573     Ni  0.54222741  0.57631514  0.22513782     1.34900
C2574       C  0.52370816  0.52323921  0.36651591     0.85000
O2575       O  0.97170493  0.55988423  0.23128085    -0.79100
O2576       O  0.50443509  0.59473015  0.22241478    -0.89400
C2577       C  0.95566415  0.98945828  0.26411218     0.84500
O2578       O  0.53736054  0.55367173  0.17276303    -0.67600
O2579       O  0.54270284  0.95923110  0.30612767    -0.86900
C2580       C  0.52328380  0.53074157  0.16082838     0.85400
C2581       C  0.97823752  0.58598783  0.22583929     1.06900
H2582       H  0.52846646  0.98624104  0.24158622     0.38700
O2583       O  0.52104101  0.99991116  0.26433736    -1.07500
O2584       O  0.53843266  0.53592239  0.34058990    -0.66200
Ni2585     Ni  0.55150856  0.52476795  0.28212009     1.26300
O2586       O  0.50924836  0.51748883  0.18680381    -0.66400
O2587       O  0.57562568  0.99353123  0.29557854    -0.78700
C2588       C  0.59278626  0.56309590  0.26209982     0.84700
O2589       O  0.58263749  0.55175518  0.29170474    -0.65900
Ni2590     Ni  0.50506496  0.97757303  0.30253006     1.27400
Ni2591     Ni  0.99605208  0.52835143  0.24529873     1.26100
H2592       H  0.51890668  0.56728432  0.28587789     0.39300
C2593       C  0.62252257  0.87140795  0.49133099     0.30200
C2594       C  0.62041067  0.87201833  0.07126532     0.30200
C2595       C  0.61660601  0.90206560  0.01673599    -0.06000
C2596       C  0.59989267  0.85156291  0.00727250    -0.06800
C2597       C  0.65156681  0.86086749  0.00851287    -0.06600
C2598       C  0.61452123  0.90195299  0.05737558    -0.06000
C2599       C  0.59894393  0.85122869  0.04785431    -0.06700
C2600       C  0.65019167  0.86104142  0.04961176    -0.06600
C2601       C  0.60105147  0.92849501  0.07430135    -0.32000
N2602       N  0.59642284  0.94560927  0.04543534     0.14500
C2603       C  0.60683285  0.92985390  0.51037186    -0.32000
H2604       H  0.60365908  0.93661750  0.48152350     0.16400
C2605       C  0.57939217  0.82969829  0.05467733    -0.31000
N2606       N  0.56729664  0.81858400  0.01959242     0.13200
C2607       C  0.58054600  0.83120082  0.49030477    -0.31000
C2608       C  0.67673139  0.84922139  0.05969199    -0.31300
N2609       N  0.69459794  0.84238554  0.02642674     0.13700
H2610       H  0.68252275  0.84535938  0.08923337     0.16300
C2611       C  0.67954842  0.84972162  0.49503498    -0.31300
H2612       H  0.68861847  0.84750896  0.46485390     0.16300
H2613       H  0.57697805  0.82547815  0.45874029     0.16300
H2614       H  0.59222773  0.93353471  0.10462737     0.16400
H2615       H  0.57421422  0.82267210  0.08311693     0.16300
C2616       C  0.62206366  0.87486121  0.24214784     0.30200
C2617       C  0.61985602  0.87244818  0.32168725     0.30200
C2618       C  0.61120123  0.90303661  0.26895108    -0.06000
C2619       C  0.60263453  0.85096117  0.25579347    -0.06800
C2620       C  0.65156081  0.86812487  0.25999548    -0.06600
C2621       C  0.60981326  0.90211432  0.30969381    -0.06000
C2622       C  0.60136700  0.85014233  0.29635627    -0.06700
C2623       C  0.65049199  0.86840929  0.30105457    -0.06600
C2624       C  0.59750743  0.92887088  0.32750596    -0.32000
N2625       N  0.59148662  0.94539999  0.29858667     0.14500
C2626       C  0.59992571  0.92982163  0.26279996    -0.32000
H2627       H  0.59534863  0.93630145  0.23411561     0.16400
C2628       C  0.58163148  0.82919854  0.30356133    -0.31000
N2629       N  0.57093888  0.81703086  0.26820527     0.13200
C2630       C  0.58428118  0.82953924  0.23874297    -0.31000
C2631       C  0.67833607  0.86237038  0.31199472    -0.31300
N2632       N  0.69566313  0.85531366  0.27861500     0.13700
H2633       H  0.68503876  0.86043862  0.34185367     0.16300
C2634       C  0.67955804  0.85855820  0.24649760    -0.31300
H2635       H  0.68697456  0.85228966  0.21569709     0.16300
H2636       H  0.58047063  0.82368404  0.20728039     0.16300
H2637       H  0.59149485  0.93545679  0.35869696     0.16400
H2638       H  0.57479026  0.82392069  0.33248275     0.16300
C2639       C  0.67881682  0.62173473  0.06330962     0.30200
C2640       C  0.67864036  0.61353895  0.48269398     0.30200
C2641       C  0.69475386  0.64514808  0.04298775    -0.06000
C2642       C  0.69257893  0.59249298  0.04253173    -0.06800
C2643       C  0.64794550  0.61953579  0.04552798    -0.06600
C2644       C  0.69500621  0.63990653  0.50209695    -0.06000
C2645       C  0.69364377  0.58842552  0.50094572    -0.06700
C2646       C  0.64826020  0.61693119  0.50361580    -0.06600
C2647       C  0.71456512  0.65807338  0.48778311    -0.32000
N2648       N  0.72564981  0.67587230  0.01868333     0.14500
C2649       C  0.71354918  0.66845059  0.05304860    -0.32000
H2650       H  0.71883273  0.67833854  0.08283792     0.16400
C2651       C  0.71147673  0.56378806  0.48914099    -0.31000
N2652       N  0.71832519  0.55165276  0.02201554     0.13200
C2653       C  0.70652428  0.56889974  0.05466429    -0.31000
C2654       C  0.62483263  0.60047837  0.49074150    -0.31300
N2655       N  0.61119984  0.59076827  0.02176807     0.13700
H2656       H  0.62096594  0.59214152  0.45983919     0.16300
C2657       C  0.62513743  0.60166462  0.05520034    -0.31300
H2658       H  0.62149498  0.59423315  0.08375281     0.16300
H2659       H  0.70977083  0.56550479  0.08516889     0.16300
H2660       H  0.72051420  0.65815122  0.45661412     0.16400
H2661       H  0.72071976  0.55645524  0.45946946     0.16300
C2662       C  0.67773339  0.62385148  0.31446513     0.30200
C2663       C  0.67921985  0.62445478  0.23456589     0.30200
C2664       C  0.68295420  0.65403308  0.30156838    -0.06000
C2665       C  0.70242196  0.60492501  0.29066690    -0.06800
C2666       C  0.65023456  0.61302775  0.29277443    -0.06600
C2667       C  0.68292615  0.65422575  0.26044080    -0.06000
C2668       C  0.70280620  0.60449004  0.24957068    -0.06700
C2669       C  0.65118880  0.61295510  0.25179829    -0.06600
C2670       C  0.69723777  0.67879655  0.25267870    -0.32000
N2671       N  0.70590133  0.69357933  0.28749027     0.14500
C2672       C  0.69899052  0.67799937  0.31714328    -0.32000
H2673       H  0.70653156  0.68281987  0.34728841     0.16400
C2674       C  0.72147153  0.58136085  0.23323250    -0.31000
N2675       N  0.73330756  0.56920073  0.26345734     0.13200
C2676       C  0.72235699  0.58382090  0.29854219    -0.31000
C2677       C  0.63091866  0.59322467  0.23610736    -0.31300
N2678       N  0.61689112  0.58243230  0.26640714     0.13700
H2679       H  0.62756643  0.58620314  0.20470732     0.16300
C2680       C  0.62881799  0.59391879  0.30106874    -0.31300
H2681       H  0.62337017  0.58761124  0.32987756     0.16300
H2682       H  0.72737247  0.57805404  0.32744240     0.16300
H2683       H  0.70295223  0.68434922  0.22350307     0.16400
H2684       H  0.72522834  0.57305046  0.20187664     0.16300
O2685       O  0.78667942  0.75125670  0.40788742    -0.80700
O2686       O  0.78030188  0.75801213  0.09413390    -0.65400
O2687       O  0.75843653  0.75839405  0.48491305    -1.12000
C2688       C  0.80324984  0.85067836  0.00554025     1.06200
O2689       O  0.75919242  0.80176866  0.11130916    -0.78600
O2690       O  0.73778599  0.83489469  0.05885343    -0.66100
Ni2691     Ni  0.77053557  0.72655684  0.44430431     1.34900
C2692       C  0.72456407  0.83059983  0.02625928     0.85000
O2693       O  0.75025934  0.71954169  0.04116865    -0.79100
O2694       O  0.75394746  0.69959658  0.47631721    -0.89400
C2695       C  0.77255358  0.77948628  0.12107100     0.84500
O2696       O  0.80933337  0.71941777  0.46099026    -0.67600
O2697       O  0.79439578  0.85133227  0.04191140    -0.86900
C2698       C  0.82136796  0.72275443  0.99452424     0.85400
C2699       C  0.74476746  0.69934717  0.01235247     1.06900
H2700       H  0.80757409  0.79077324  0.03324575     0.38700
O2701       O  0.78649624  0.79322512  0.03385555    -1.09500
O2702       O  0.73678811  0.81629743  0.49434521    -0.66200
Ni2703     Ni  0.77494336  0.79552561  0.48013406     1.26300
O2704       O  0.80791392  0.73569421  0.02625351    -0.66400
O2705       O  0.79493311  0.83172711  0.47697127    -0.78700
C2706       C  0.77252757  0.77307892  0.39818660     0.84700
O2707       O  0.76370424  0.79399514  0.42524789    -0.65900
Ni2708     Ni  0.77633603  0.82558007  0.07452300     1.27400
Ni2709     Ni  0.76961327  0.75625488  0.03888405     1.26100
H2710       H  0.73733278  0.76034649  0.48478194     0.39300
O2711       O  0.81888840  0.72646120  0.21253951    -0.80700
O2712       O  0.73921591  0.83304560  0.24729748    -0.65400
O2713       O  0.80111658  0.77757402  0.25665930    -1.12000
C2714       C  0.72157084  0.72013115  0.29070407     1.06200
O2715       O  0.72744499  0.82529641  0.30760485    -0.78600
O2716       O  0.73886197  0.78298811  0.35047905    -0.66100
Ni2717     Ni  0.82893205  0.76648537  0.21398070     1.34900
C2718       C  0.76394225  0.77244536  0.35601200     0.85000
O2719       O  0.79915038  0.83444840  0.23994721    -0.79100
O2720       O  0.83939649  0.80690190  0.21555760    -0.89400
C2721       C  0.72235530  0.83835584  0.27812875     0.84500
O2722       O  0.80594052  0.76761209  0.16817432    -0.67600
O2723       O  0.70694972  0.74444156  0.30031445    -0.86900
C2724       C  0.78167010  0.78007946  0.16312558     0.85400
C2725       C  0.82614866  0.83157500  0.22815783     1.06900
H2726       H  0.73595551  0.76725548  0.23830380     0.38700
O2727       O  0.74599318  0.77497377  0.26202412    -1.09500
O2728       O  0.78062128  0.75982047  0.32723572    -0.66200
Ni2729     Ni  0.77598591  0.74739063  0.27003849     1.26300
O2730       O  0.76638994  0.79445830  0.19216669    -0.66400
O2731       O  0.74890104  0.71822714  0.28104082    -0.78700
C2732       C  0.82480558  0.71471722  0.24290065     0.84700
O2733       O  0.80818936  0.72056232  0.27382003    -0.65900
Ni2734     Ni  0.71722903  0.78511040  0.30375004     1.27400
Ni2735     Ni  0.77129569  0.80552386  0.24971373     1.26100
H2736       H  0.81177303  0.78519177  0.27993539     0.39300
C2737       C  0.67727094  0.59306136  0.36916063    -0.08900
C2738       C  0.67510316  0.62137642  0.35818093     0.07300
C2739       C  0.66561368  0.64479351  0.38777960    -0.02700
C2740       C  0.66687751  0.64094022  0.42735943    -0.07100
C2741       C  0.67589892  0.61384182  0.43850288     0.06400
C2742       C  0.67678504  0.58892494  0.40890067    -0.02200
Br2743     Br  0.66887669  0.54981833  0.41856903    -0.01900
H2744       H  0.67782225  0.57379765  0.34652229     0.10300
H2745       H  0.66034825  0.65936699  0.44995193     0.08300
Br2746     Br  0.64556429  0.68027192  0.37817988    -0.02300
C2747       C  0.65523808  0.63681842  0.13159225    -0.08900
C2748       C  0.68039006  0.62695965  0.10812774     0.07300
C2749       C  0.70690177  0.62337130  0.12755513    -0.02700
C2750       C  0.70605265  0.62284864  0.16841530    -0.07100
C2751       C  0.67953186  0.62705698  0.19077282     0.06400
C2752       C  0.65495006  0.63804986  0.17275967    -0.02200
Br2753     Br  0.62141792  0.65746037  0.20205951    -0.01900
H2754       H  0.63579476  0.64427055  0.11819032     0.10300
H2755       H  0.72647862  0.61997549  0.18276852     0.08300
Br2756     Br  0.74515774  0.61993174  0.10141537    -0.02300
C2757       C  0.59582660  0.88366987  0.38980544    -0.08900
C2758       C  0.61815307  0.86887044  0.36499741     0.07300
C2759       C  0.63458504  0.84691931  0.38038612    -0.02700
C2760       C  0.63653493  0.84875848  0.42138833    -0.07100
C2761       C  0.61983463  0.86997508  0.44709210     0.06400
C2762       C  0.59569905  0.88338430  0.43061709    -0.02200
Br2763     Br  0.55942943  0.89635952  0.45927590    -0.01900
H2764       H  0.57738098  0.89374176  0.37728366     0.10300
H2765       H  0.64889228  0.83175502  0.43285032     0.08300
Br2766     Br  0.64930332  0.81088199  0.34889705    -0.02300
C2767       C  0.64411753  0.88551081  0.13625286    -0.08900
C2768       C  0.61930874  0.87486862  0.11602166     0.07300
C2769       C  0.59290538  0.87472738  0.13893721    -0.02700
C2770       C  0.59439991  0.87484095  0.17978080    -0.07100
C2771       C  0.62131133  0.87770541  0.19858195     0.06400
C2772       C  0.64468111  0.88856755  0.17755684    -0.02200
Br2773     Br  0.67326774  0.91443330  0.20261000    -0.01900
H2774       H  0.66240226  0.89334373  0.12013310     0.10300
H2775       H  0.57425235  0.87403210  0.19719722     0.08300
Br2776     Br  0.55440265  0.88080037  0.11953641    -0.02300
C2777       C  0.76467336  0.99322131  0.23895311    -0.08900
C2778       C  0.79086504  0.49461912  0.25885893     0.07300
C2779       C  0.79781871  0.52199158  0.28056342    -0.02700
C2780       C  0.77880003  0.54627661  0.28113089    -0.07100
C2781       C  0.75286125  0.54400867  0.26015577     0.06400
C2782       C  0.74562456  0.51662344  0.23886025    -0.02200
Br2783     Br  0.70886094  0.51094039  0.21351360    -0.01900
H2784       H  0.75914824  0.97227139  0.22229094     0.10300
H2785       H  0.78432132  0.56723543  0.29779217     0.08300
Br2786     Br  0.83379284  0.52807535  0.30788065    -0.02300
C2787       C  0.76265550  0.53447319  0.05048700    -0.08900
C2788       C  0.74005618  0.52896773  0.02363754     0.07300
C2789       C  0.73966178  0.50178149  0.99852652    -0.02700
C2790       C  0.76235054  0.98138161  0.99864792    -0.07100
C2791       C  0.78610171  0.48757863  0.02441412     0.06400
C2792       C  0.78561069  0.51417338  0.05113570    -0.02200
Br2793     Br  0.81689769  0.52589989  0.08606359    -0.01900
H2794       H  0.76314525  0.55536159  0.06984517     0.10300
H2795       H  0.76245662  0.96089721  0.97826082     0.08300
Br2796     Br  0.70830545  0.49130281  0.96353130    -0.02300
C2797       C  0.86608836  0.95076736  0.35733589    -0.08900
C2798       C  0.87253871  0.92417104  0.33242707     0.07300
C2799       C  0.88469357  0.90064262  0.34977057    -0.02700
C2800       C  0.88210485  0.90142405  0.39085495    -0.07100
C2801       C  0.87137740  0.92678416  0.41574323     0.06400
C2802       C  0.86675560  0.95276314  0.39849689    -0.02200
Br2803     Br  0.86635283  0.99238825  0.42662221    -0.01900
H2804       H  0.86257737  0.97074895  0.34461274     0.10300
H2805       H  0.89046585  0.88278889  0.40370193     0.08300
Br2806     Br  0.91056329  0.87025580  0.32165460    -0.02300
C2807       C  0.88917790  0.90090834  0.13890218    -0.08900
C2808       C  0.87903352  0.92618916  0.16462136     0.07300
C2809       C  0.87653381  0.95300212  0.14905453    -0.02700
C2810       C  0.87657933  0.95219455  0.10813169    -0.07100
C2811       C  0.88042804  0.92548294  0.08232794     0.06400
C2812       C  0.89067195  0.90052005  0.09798079    -0.02200
Br2813     Br  0.90833558  0.86595472  0.06631977    -0.01900
H2814       H  0.89660108  0.88141376  0.15047073     0.10300
H2815       H  0.87384100  0.97272736  0.09645097     0.08300
Br2816     Br  0.87521959  0.99170438  0.18027800    -0.02300
C2817       C  0.55004197  0.77084992  0.28280956    -0.08900
C2818       C  0.54817837  0.79576580  0.26346136     0.07300
C2819       C  0.52328590  0.79998861  0.24109664    -0.02700
C2820       C  0.50128766  0.77916072  0.23775307    -0.07100
C2821       C  0.50302109  0.75433341  0.25734832     0.06400
C2822       C  0.52784050  0.75023550  0.27996923    -0.02200
Br2823     Br  0.53345552  0.71625470  0.30592516    -0.01900
H2824       H  0.56903305  0.76736737  0.30004169     0.10300
H2825       H  0.98222851  0.78276685  0.22071093     0.08300
Br2826     Br  0.51677824  0.83512725  0.21785467    -0.02300
C2827       C  0.54705008  0.77198362  0.03404855    -0.08900
C2828       C  0.54495794  0.79669449  0.01433155     0.07300
C2829       C  0.52067799  0.79939729  0.48996996    -0.02700
C2830       C  0.49941641  0.77780750  0.48600044    -0.07100
C2831       C  0.50141018  0.75328759  0.00603555     0.06400
C2832       C  0.52584843  0.75032876  0.02985976    -0.02200
Br2833     Br  0.53289383  0.71622406  0.05494691    -0.01900
H2834       H  0.56569694  0.76921540  0.05220846     0.10300
H2835       H  0.98077587  0.78049533  0.46778698     0.08300
Br2836     Br  0.51368949  0.83280851  0.46346195    -0.02300
C2837       C  0.90109962  0.66707215  0.38622742    -0.08900
C2838       C  0.92596915  0.67647477  0.40713526     0.07300
C2839       C  0.95259290  0.67658170  0.38482911    -0.02700
C2840       C  0.95155543  0.67825009  0.34441392    -0.07100
C2841       C  0.92482465  0.67652058  0.32508147     0.06400
C2842       C  0.90091905  0.66537862  0.34501713    -0.02200
Br2843     Br  0.87145424  0.64131850  0.31852359    -0.01900
H2844       H  0.88239900  0.65938007  0.40168044     0.10300
H2845       H  0.97196779  0.67887810  0.32754678     0.08300
Br2846     Br  0.99050429  0.66768539  0.40417448    -0.02300
C2847       C  0.91020074  0.70368353  0.10223361    -0.08900
C2848       C  0.92599478  0.68203489  0.07610634     0.07300
C2849       C  0.95010021  0.66785992  0.09191204    -0.02700
C2850       C  0.95062733  0.66757964  0.13270634    -0.07100
C2851       C  0.92946002  0.68351458  0.15818965     0.06400
C2852       C  0.91347606  0.70592314  0.14309278    -0.02200
Br2853     Br  0.90097609  0.74267940  0.17477915    -0.01900
H2854       H  0.89757962  0.72064372  0.09103764     0.10300
H2855       H  0.96890163  0.65683593  0.14463944     0.08300
Br2856     Br  0.98573887  0.65352048  0.06251475    -0.02300
C2857       C  0.92457530  0.67927541  0.95181263     0.30200
C2858       C  0.92254149  0.68067332  0.53191265     0.30200
C2859       C  0.92913796  0.64937908  0.96612408    -0.06000
C2860       C  0.94674347  0.69929960  0.97465054    -0.06800
C2861       C  0.89533168  0.69156441  0.97343508    -0.06600
C2862       C  0.92696164  0.64970779  0.50690694    -0.06000
C2863       C  0.94594423  0.69936687  0.51526124    -0.06700
C2864       C  0.89385691  0.69230409  0.51471181    -0.06600
C2865       C  0.93678450  0.62217427  0.51392180    -0.32000
N2866       N  0.94797183  0.60649079  0.97934747     0.14500
C2867       C  0.94322079  0.62303854  0.94996959    -0.32000
H2868       H  0.95263304  0.61794637  0.91996924     0.16400
C2869       C  0.96560818  0.71965307  0.53152116    -0.31000
N2870       N  0.97880347  0.73173013  0.50166382     0.13200
C2871       C  0.96638551  0.72045250  0.96698789    -0.31000
C2872       C  0.86602800  0.70427350  0.52767105    -0.31300
N2873       N  0.85130611  0.71124635  0.49568600     0.13700
H2874       H  0.85683734  0.70711244  0.55783494     0.16300
C2875       C  0.86925690  0.70369584  0.96275351    -0.31300
H2876       H  0.86369335  0.70703141  0.93292169     0.16300
H2877       H  0.97135576  0.72716434  0.93829060     0.16300
H2878       H  0.93986890  0.61575328  0.54298725     0.16400
H2879       H  0.96937024  0.72579397  0.56297028     0.16300
C2880       C  0.92802092  0.68027647  0.70163415     0.30200
C2881       C  0.92510241  0.67922120  0.78145813     0.30200
C2882       C  0.93677680  0.65051291  0.71457159    -0.06000
C2883       C  0.94742338  0.70200298  0.72644242    -0.06800
C2884       C  0.89748881  0.68588220  0.72208500    -0.06600
C2885       C  0.93492350  0.65030696  0.75549409    -0.06000
C2886       C  0.94598738  0.70181791  0.76719812    -0.06700
C2887       C  0.89613509  0.68706930  0.76319256    -0.06600
C2888       C  0.94634973  0.62388040  0.76287392    -0.32000
N2889       N  0.95534214  0.60779283  0.72770053     0.14500
C2890       C  0.94950583  0.62363689  0.69795345    -0.32000
H2891       H  0.95625640  0.61664870  0.66711631     0.16400
C2892       C  0.96571667  0.72221027  0.78348107    -0.31000
N2893       N  0.97977201  0.73353625  0.75343542     0.13200
C2894       C  0.96837232  0.72157304  0.71845442    -0.31000
C2895       C  0.86810130  0.69694085  0.77603289    -0.31300
N2896       N  0.85221333  0.69923395  0.74343602     0.13700
H2897       H  0.86028193  0.70337401  0.80663920     0.16300
C2898       C  0.86976551  0.69167258  0.71044576    -0.31300
H2899       H  0.86318553  0.69263721  0.68026639     0.16300
H2900       H  0.97543092  0.72612154  0.68924450     0.16300
H2901       H  0.95099848  0.61820469  0.79198494     0.16400
H2902       H  0.96977979  0.72829808  0.81483045     0.16300
C2903       C  0.87648742  0.92536108  0.53848575     0.30200
C2904       C  0.87160468  0.92632365  0.96004737     0.30200
C2905       C  0.86492992  0.89740513  0.51557463    -0.06000
C2906       C  0.85490998  0.94889306  0.52750329    -0.06800
C2907       C  0.90482862  0.93026831  0.51666164    -0.06600
C2908       C  0.86161636  0.89727959  0.97457768    -0.06000
C2909       C  0.85234626  0.94915130  0.98670613    -0.06700
C2910       C  0.90258543  0.93190785  0.97613934    -0.06600
C2911       C  0.83691122  0.88019637  0.96540188    -0.32000
N2912       N  0.82652935  0.87017282  0.49890375     0.14500
C2913       C  0.84327428  0.88117496  0.52907625    -0.32000
H2914       H  0.83857530  0.87960897  0.56020716     0.16400
C2915       C  0.82487958  0.96041308  0.98147675    -0.31000
N2916       N  0.81172647  0.96919051  0.51756300     0.13200
C2917       C  0.82886738  0.96046293  0.54560267    -0.31000
C2918       C  0.92267879  0.95290652  0.96821466    -0.31300
N2919       N  0.93706273  0.96249084  0.50185630     0.13700
H2920       H  0.92445308  0.96261435  0.94107474     0.16300
C2921       C  0.92633323  0.94865818  0.53115092    -0.31300
H2922       H  0.93099253  0.95459250  0.56238807     0.16300
H2923       H  0.82221226  0.96125179  0.57667793     0.16300
H2924       H  0.82590088  0.87765668  0.93736513     0.16400
H2925       H  0.81493799  0.96175788  0.95321219     0.16300
C2926       C  0.87198021  0.92405024  0.78799851     0.30200
C2927       C  0.87512416  0.92472159  0.70837664     0.30200
C2928       C  0.86936970  0.89391670  0.76214392    -0.06000
C2929       C  0.84725671  0.94191903  0.77172714    -0.06800
C2930       C  0.89975344  0.93656228  0.77195746    -0.06600
C2931       C  0.87133670  0.89400407  0.72068188    -0.06000
C2932       C  0.84869603  0.94188197  0.73071461    -0.06700
C2933       C  0.90150726  0.93661998  0.73127711    -0.06600
C2934       C  0.85459329  0.87098731  0.70367064    -0.32000
N2935       N  0.84342250  0.85709578  0.73280480     0.14500
C2936       C  0.85121615  0.87139708  0.76830587    -0.32000
H2937       H  0.84260994  0.86699925  0.79690045     0.16400
C2938       C  0.82544624  0.95904446  0.72154737    -0.31000
N2939       N  0.81109441  0.97085602  0.75600316     0.13200
C2940       C  0.82351975  0.95978275  0.78669781    -0.31000
C2941       C  0.92319018  0.95553871  0.72366520    -0.31300
N2942       N  0.93372785  0.96777324  0.75885456     0.13700
H2943       H  0.92950746  0.96150972  0.69495469     0.16300
C2944       C  0.91959495  0.95641964  0.78859722    -0.31300
H2945       H  0.92213165  0.96361596  0.82014407     0.16300
H2946       H  0.81652067  0.96562433  0.81770334     0.16300
H2947       H  0.84855517  0.86646376  0.67280405     0.16400
H2948       H  0.82047725  0.96432107  0.69236777     0.16300
O2949       O  0.57621834  0.56519023  0.98316828    -0.80700
O2950       O  0.96608265  0.49914769  0.98105050    -0.65400
O2951       O  0.52367775  0.55472244  0.51511267    -1.12000
C2952       C  0.57266797  0.96722072  0.54708149     1.06200
O2953       O  0.96936933  0.99035628  0.54279396    -0.78600
O2954       O  0.51065933  0.99673534  0.60149213    -0.66100
Ni2955     Ni  0.53722645  0.58019937  0.97915279     1.34900
C2956       C  0.52401633  0.51961059  0.61476973     0.85000
O2957       O  0.96794525  0.55925304  0.98353238    -0.79100
O2958       O  0.49813501  0.59634066  0.97612499    -0.89400
C2959       C  0.95786196  0.98535195  0.50876629     0.84500
O2960       O  0.53496033  0.55842838  0.92533608    -0.67600
O2961       O  0.54672024  0.95787117  0.55099818    -0.86900
C2962       C  0.52241176  0.53472864  0.91230751     0.85400
C2963       C  0.97248973  0.58603030  0.97884574     1.06900
H2964       H  0.53023212  0.98739929  0.98812992     0.38700
O2965       O  0.52232802  0.99979068  0.51178791    -1.09500
O2966       O  0.53816919  0.53354132  0.58978456    -0.66200
Ni2967     Ni  0.55125661  0.52584493  0.53132545     1.26300
O2968       O  0.50876349  0.52039823  0.93720507    -0.66400
O2969       O  0.57800815  0.99392236  0.54209751    -0.78700
C2970       C  0.58853145  0.56956173  0.51663119     0.84700
O2971       O  0.58059004  0.55498531  0.54423671    -0.65900
Ni2972     Ni  0.50802180  0.97474724  0.54777989     1.27400
Ni2973     Ni  0.99480959  0.52818020  0.49509740     1.26100
H2974       H  0.51561228  0.56685748  0.53888102     0.39300
O2975       O  0.58030158  0.55871643  0.72879082    -0.80700
O2976       O  0.96535545  0.50103983  0.73508012    -0.65400
O2977       O  0.52637346  0.55374137  0.76300960    -1.12000
C2978       C  0.56891742  0.96759794  0.80162826     1.06200
O2979       O  0.96732946  0.99509702  0.79779963    -0.78600
O2980       O  0.50941539  0.00077582  0.85449952    -0.66100
Ni2981     Ni  0.54222779  0.57631566  0.72513778     1.34900
C2982       C  0.52370894  0.52323928  0.86651584     0.85000
O2983       O  0.97170523  0.55988473  0.73128137    -0.79100
O2984       O  0.50443538  0.59473064  0.72241473    -0.89400
C2985       C  0.95566457  0.98945844  0.76411208     0.84500
O2986       O  0.53736093  0.55367206  0.67276306    -0.67600
O2987       O  0.54270323  0.95923121  0.80612745    -0.86900
C2988       C  0.52328396  0.53074203  0.66082846     0.85400
C2989       C  0.97823776  0.58598831  0.72583958     1.06900
H2990       H  0.52846682  0.98624125  0.74158615     0.38700
O2991       O  0.52104138  0.99991139  0.76433730    -1.07500
O2992       O  0.53843319  0.53592276  0.84058986    -0.66200
Ni2993     Ni  0.55150913  0.52476856  0.78212004     1.26300
O2994       O  0.50924845  0.51748942  0.68680394    -0.66400
O2995       O  0.57562592  0.99353162  0.79557884    -0.78700
C2996       C  0.59278677  0.56309646  0.76209979     0.84700
O2997       O  0.58263790  0.55175587  0.79170475    -0.65900
Ni2998     Ni  0.50506533  0.97757314  0.80252984     1.27400
Ni2999     Ni  0.99605256  0.52835187  0.74529894     1.26100
H3000       H  0.51890724  0.56728500  0.78587800     0.39300
C3001       C  0.62252345  0.87140826  0.99133083     0.30200
C3002       C  0.62041037  0.87201834  0.57126559     0.30200
C3003       C  0.61660593  0.90206544  0.51673602    -0.06000
C3004       C  0.59989136  0.85156324  0.50727326    -0.06800
C3005       C  0.65156586  0.86086667  0.50851275    -0.06600
C3006       C  0.61452138  0.90195300  0.55737564    -0.06000
C3007       C  0.59894311  0.85122900  0.54785514    -0.06700
C3008       C  0.65019098  0.86104079  0.54961167    -0.06600
C3009       C  0.60105209  0.92849524  0.57430139    -0.32000
N3010       N  0.59642355  0.94560946  0.54543531     0.14500
C3011       C  0.60683253  0.92985395  0.01037191    -0.32000
H3012       H  0.60365887  0.93661764  0.98152357     0.16400
C3013       C  0.57939121  0.82969885  0.55467872    -0.31000
N3014       N  0.56729496  0.81858504  0.51959419     0.13200
C3015       C  0.58054819  0.83119982  0.99030341    -0.31000
C3016       C  0.67673071  0.84922079  0.55969184    -0.31300
N3017       N  0.69459713  0.84238483  0.52642653     0.13700
H3018       H  0.68252219  0.84535902  0.58923326     0.16300
C3019       C  0.67954938  0.84972250  0.99503519    -0.31300
H3020       H  0.68861950  0.84750986  0.96485418     0.16300
H3021       H  0.57698140  0.82547670  0.95873870     0.16300
H3022       H  0.59222844  0.93353509  0.60462746     0.16400
H3023       H  0.57421364  0.82267247  0.58311832     0.16300
C3024       C  0.62206480  0.87486229  0.74214810     0.30200
C3025       C  0.61985707  0.87244896  0.82168740     0.30200
C3026       C  0.61120235  0.90303759  0.76895152    -0.06000
C3027       C  0.60263564  0.85096215  0.75579351    -0.06800
C3028       C  0.65156193  0.86812597  0.75999572    -0.06600
C3029       C  0.60981424  0.90211512  0.80969419    -0.06000
C3030       C  0.60136809  0.85014314  0.79635625    -0.06700
C3031       C  0.65049307  0.86841025  0.80105479    -0.06600
C3032       C  0.59750802  0.92887151  0.82750643    -0.32000
N3033       N  0.59148719  0.94540064  0.79858718     0.14500
C3034       C  0.59992668  0.92982255  0.76280050    -0.32000
H3035       H  0.59534963  0.93630245  0.73411617     0.16400
C3036       C  0.58163226  0.82919960  0.80356124    -0.31000
N3037       N  0.57093947  0.81703221  0.76820519     0.13200
C3038       C  0.58428190  0.82954057  0.73874295    -0.31000
C3039       C  0.67833715  0.86237130  0.81199498    -0.31300
N3040       N  0.69566417  0.85531452  0.77861526     0.13700
H3041       H  0.68503982  0.86043941  0.84185391     0.16300
C3042       C  0.67955913  0.85855920  0.74649788    -0.31300
H3043       H  0.68697561  0.85229052  0.71569738     0.16300
H3044       H  0.58047117  0.82368560  0.70728037     0.16300
H3045       H  0.59149512  0.93545724  0.85869739     0.16400
H3046       H  0.57479096  0.82392176  0.83248260     0.16300
C3047       C  0.67881706  0.62173396  0.56330947     0.30200
C3048       C  0.67864011  0.61353975  0.98269413     0.30200
C3049       C  0.69475451  0.64514702  0.54298753    -0.06000
C3050       C  0.69257869  0.59249200  0.54253164    -0.06800
C3051       C  0.64794573  0.61953556  0.54552793    -0.06600
C3052       C  0.69500551  0.63990762  0.00209711    -0.06000
C3053       C  0.69364401  0.58842657  0.00094581    -0.06700
C3054       C  0.64825997  0.61693147  0.00361587    -0.06600
C3055       C  0.71456468  0.65807416  0.98778323    -0.32000
N3056       N  0.72565008  0.67587165  0.51868325     0.14500
C3057       C  0.71354953  0.66844978  0.55304845    -0.32000
H3058       H  0.71883286  0.67833783  0.58283782     0.16400
C3059       C  0.71147707  0.56378922  0.98914092    -0.31000
N3060       N  0.71832471  0.55165158  0.52201568     0.13200
C3061       C  0.70652380  0.56889869  0.55466435    -0.31000
C3062       C  0.62483264  0.60047833  0.99074152    -0.31300
N3063       N  0.61119966  0.59076854  0.52176807     0.13700
H3064       H  0.62096598  0.59214151  0.95983919     0.16300
C3065       C  0.62513739  0.60166470  0.55520032    -0.31300
H3066       H  0.62149484  0.59423331  0.58375284     0.16300
H3067       H  0.70977034  0.56550389  0.58516900     0.16300
H3068       H  0.72051389  0.65815181  0.95661426     0.16400
H3069       H  0.72071991  0.55645636  0.95946931     0.16300
C3070       C  0.67773424  0.62385167  0.81446524     0.30200
C3071       C  0.67922102  0.62445473  0.73456595     0.30200
C3072       C  0.68295458  0.65403333  0.80156839    -0.06000
C3073       C  0.70242321  0.60492549  0.79066735    -0.06800
C3074       C  0.65023574  0.61302742  0.79277424    -0.06600
C3075       C  0.68292676  0.65422587  0.76044077    -0.06000
C3076       C  0.70280762  0.60449046  0.74957107    -0.06700
C3077       C  0.65119015  0.61295461  0.75179812    -0.06600
C3078       C  0.69723840  0.67879664  0.75267871    -0.32000
N3079       N  0.70590166  0.69357961  0.78749031     0.14500
C3080       C  0.69899068  0.67799976  0.81714336    -0.32000
H3081       H  0.70653154  0.68282037  0.84728858     0.16400
C3082       C  0.72147252  0.58136089  0.73323304    -0.31000
N3083       N  0.73330830  0.56920065  0.76345794     0.13200
C3084       C  0.72235786  0.58382103  0.79854275    -0.31000
C3085       C  0.63091975  0.59322450  0.73610716    -0.31300
N3086       N  0.61689193  0.58243246  0.76640702     0.13700
H3087       H  0.62756746  0.58620300  0.70470714     0.16300
C3088       C  0.62881882  0.59391886  0.80106864    -0.31300
H3089       H  0.62337068  0.58761162  0.82987755     0.16300
H3090       H  0.72737310  0.57805400  0.82744296     0.16300
H3091       H  0.70295312  0.68434912  0.72350308     0.16400
H3092       H  0.72522913  0.57305029  0.70187723     0.16300
O3093       O  0.78667978  0.75125690  0.90788751    -0.80700
O3094       O  0.78030148  0.75801199  0.59413393    -0.65400
O3095       O  0.75843688  0.75839434  0.98491314    -1.12000
C3096       C  0.80324878  0.85067857  0.50553991     1.06200
O3097       O  0.75919223  0.80176861  0.61130936    -0.78600
O3098       O  0.73778514  0.83489412  0.55885333    -0.66100
Ni3099     Ni  0.77053567  0.72655711  0.94430429     1.34900
C3100       C  0.72456333  0.83059932  0.52625909     0.85000
O3101       O  0.75025911  0.71954139  0.54116861    -0.79100
O3102       O  0.75394723  0.69959704  0.97631716    -0.89400
C3103       C  0.77255346  0.77948623  0.62107105     0.84500
O3104       O  0.80933343  0.71941753  0.96099012    -0.67600
O3105       O  0.79439458  0.85133248  0.54191102    -0.86900
C3106       C  0.82136775  0.72275465  0.49452449     0.85400
C3107       C  0.74476753  0.69934672  0.51235245     1.06900
H3108       H  0.80757365  0.79077333  0.53324573     0.38700
O3109       O  0.78649572  0.79322508  0.53385550    -1.09500
O3110       O  0.73678870  0.81629773  0.99434544    -0.66200
Ni3111     Ni  0.77494387  0.79552580  0.98013420     1.26300
O3112       O  0.80791355  0.73569423  0.52625371    -0.66400
O3113       O  0.79493376  0.83172719  0.97697154    -0.78700
C3114       C  0.77252804  0.77307919  0.89818672     0.84700
O3115       O  0.76370480  0.79399543  0.92524800    -0.65900
Ni3116     Ni  0.77633535  0.82558008  0.57452284     1.27400
Ni3117     Ni  0.76961288  0.75625472  0.53888405     1.26100
H3118       H  0.73733308  0.76034693  0.98478221     0.39300
O3119       O  0.81888858  0.72646133  0.71253961    -0.80700
O3120       O  0.73921654  0.83304585  0.74729756    -0.65400
O3121       O  0.80111697  0.77757412  0.75665928    -1.12000
C3122       C  0.72157118  0.72013143  0.79070420     1.06200
O3123       O  0.72744553  0.82529668  0.80760494    -0.78600
O3124       O  0.73886239  0.78298840  0.85047920    -0.66100
Ni3125     Ni  0.82893235  0.76648540  0.71398054     1.34900
C3126       C  0.76394268  0.77244564  0.85601214     0.85000
O3127       O  0.79915098  0.83444850  0.73994736    -0.79100
O3128       O  0.83939689  0.80690187  0.71555729    -0.89400
C3129       C  0.72235602  0.83835623  0.77812887     0.84500
O3130       O  0.80594070  0.76761208  0.66817421    -0.67600
O3131       O  0.70695007  0.74444185  0.80031455    -0.86900
C3132       C  0.78167026  0.78007947  0.66312557     0.85400
C3133       C  0.82614925  0.83157499  0.72815785     1.06900
H3134       H  0.73595586  0.76725563  0.73830393     0.38700
O3135       O  0.74599356  0.77497396  0.76202420    -1.09500
O3136       O  0.78062169  0.75982072  0.82723582    -0.66200
Ni3137     Ni  0.77598628  0.74739081  0.77003862     1.26300
O3138       O  0.76639026  0.79445843  0.69216675    -0.66400
O3139       O  0.74890140  0.71822739  0.78104109    -0.78700
C3140       C  0.82480603  0.71471750  0.74290075     0.84700
O3141       O  0.80818977  0.72056243  0.77382014    -0.65900
Ni3142     Ni  0.71722946  0.78511068  0.80375016     1.27400
Ni3143     Ni  0.77129616  0.80552403  0.74971376     1.26100
H3144       H  0.81177342  0.78519188  0.77993530     0.39300
C3145       C  0.67727150  0.59306180  0.86916092    -0.08900
C3146       C  0.67510372  0.62137680  0.85818101     0.07300
C3147       C  0.66561376  0.64479392  0.88777938    -0.02700
C3148       C  0.66687726  0.64094079  0.92735933    -0.07100
C3149       C  0.67589878  0.61384252  0.93850303     0.06400
C3150       C  0.67678518  0.58892557  0.90890100    -0.02200
Br3151     Br  0.66887639  0.54981909  0.91856958    -0.01900
H3152       H  0.67782301  0.57379802  0.84652269     0.10300
H3153       H  0.66034762  0.65936755  0.94995166     0.08300
Br3154     Br  0.64556382  0.68027187  0.87817898    -0.02300
C3155       C  0.65523884  0.63681803  0.63159239    -0.08900
C3156       C  0.68039057  0.62695890  0.60812760     0.07300
C3157       C  0.70690240  0.62337040  0.62755467    -0.02700
C3158       C  0.70605361  0.62284792  0.66841488    -0.07100
C3159       C  0.67953302  0.62705680  0.69077281     0.06400
C3160       C  0.65495119  0.63804986  0.67275985    -0.02200
Br3161     Br  0.62141953  0.65746092  0.70206010    -0.01900
H3162       H  0.63579548  0.64427025  0.61819063     0.10300
H3163       H  0.72647966  0.61997460  0.68276778     0.08300
Br3164     Br  0.74515820  0.61993058  0.60141441    -0.02300
C3165       C  0.59582733  0.88367004  0.88980542    -0.08900
C3166       C  0.61815405  0.86887098  0.86499743     0.07300
C3167       C  0.63458625  0.84691998  0.88038605    -0.02700
C3168       C  0.63653618  0.84875913  0.92138824    -0.07100
C3169       C  0.61983565  0.86997550  0.94709198     0.06400
C3170       C  0.59569982  0.88338433  0.93061699    -0.02200
Br3171     Br  0.55942999  0.89635870  0.95927583    -0.01900
H3172       H  0.57738160  0.89374176  0.87728363     0.10300
H3173       H  0.64889366  0.83175575  0.93285018     0.08300
Br3174     Br  0.64930455  0.81088269  0.84889699    -0.02300
C3175       C  0.64411801  0.88551099  0.63625253    -0.08900
C3176       C  0.61930887  0.87486897  0.61602195     0.07300
C3177       C  0.59290571  0.87472832  0.63893808    -0.02700
C3178       C  0.59440060  0.87484244  0.67978167    -0.07100
C3179       C  0.62131222  0.87770658  0.69858227     0.06400
C3180       C  0.64468207  0.88856800  0.67755648    -0.02200
Br3181     Br  0.67326943  0.91443338  0.70260852    -0.01900
H3182       H  0.66240268  0.89334357  0.62013227     0.10300
H3183       H  0.57425315  0.87403399  0.69719850     0.08300
Br3184     Br  0.55440273  0.88080107  0.61953806    -0.02300
C3185       C  0.76467355  0.99322049  0.73895185    -0.08900
C3186       C  0.79086571  0.49461887  0.75885888     0.07300
C3187       C  0.79781934  0.52199124  0.78056366    -0.02700
C3188       C  0.77880064  0.54627630  0.78113138    -0.07100
C3189       C  0.75286184  0.54400846  0.76015637     0.06400
C3190       C  0.74562515  0.51662330  0.73886064    -0.02200
Br3191     Br  0.70886149  0.51094030  0.71351414    -0.01900
H3192       H  0.75914855  0.97227052  0.72228971     0.10300
H3193       H  0.78432195  0.56723511  0.79779273     0.08300
Br3194     Br  0.83379346  0.52807498  0.80788092    -0.02300
C3195       C  0.76265506  0.53447235  0.55048743    -0.08900
C3196       C  0.74005584  0.52896670  0.52363787     0.07300
C3197       C  0.73966179  0.50178048  0.49852677    -0.02700
C3198       C  0.76235062  0.98138181  0.49864642    -0.07100
C3199       C  0.78610195  0.48757821  0.52441438     0.06400
C3200       C  0.78561051  0.51417286  0.55113606    -0.02200
Br3201     Br  0.81689742  0.52589976  0.58606389    -0.01900
H3202       H  0.76314458  0.55536073  0.56984571     0.10300
H3203       H  0.76245694  0.96089755  0.47825902     0.08300
Br3204     Br  0.70830573  0.49130147  0.46353130    -0.02300
C3205       C  0.86608802  0.95076745  0.85733592    -0.08900
C3206       C  0.87253893  0.92417128  0.83242706     0.07300
C3207       C  0.88469426  0.90064310  0.84977058    -0.02700
C3208       C  0.88210528  0.90142431  0.89085492    -0.07100
C3209       C  0.87137733  0.92678418  0.91574325     0.06400
C3210       C  0.86675512  0.95276313  0.89849695    -0.02200
Br3211     Br  0.86635167  0.99238815  0.92662247    -0.01900
H3212       H  0.86257677  0.97074902  0.84461284     0.10300
H3213       H  0.89046660  0.88278925  0.90370183     0.08300
Br3214     Br  0.91056494  0.87025713  0.82165479    -0.02300
C3215       C  0.88917776  0.90090813  0.63890198    -0.08900
C3216       C  0.87903403  0.92618909  0.66462135     0.07300
C3217       C  0.87653417  0.95300206  0.64905451    -0.02700
C3218       C  0.87657903  0.95219443  0.60813167    -0.07100
C3219       C  0.88042728  0.92548279  0.58232790     0.06400
C3220       C  0.89067100  0.90051971  0.59798061    -0.02200
Br3221     Br  0.90833299  0.86595363  0.56631941    -0.01900
H3222       H  0.89660093  0.88141350  0.65047036     0.10300
H3223       H  0.87384061  0.97272723  0.59645095     0.08300
Br3224     Br  0.87522019  0.99170437  0.68027794    -0.02300
C3225       C  0.55004262  0.77085135  0.78280969    -0.08900
C3226       C  0.54817898  0.79576712  0.76346130     0.07300
C3227       C  0.52328645  0.79998979  0.74109657    -0.02700
C3228       C  0.50128823  0.77916186  0.73775322    -0.07100
C3229       C  0.50302175  0.75433460  0.75734864     0.06400
C3230       C  0.52784117  0.75023689  0.77996955    -0.02200
Br3231     Br  0.53345629  0.71625629  0.80592575    -0.01900
H3232       H  0.56903370  0.76736890  0.80004187     0.10300
H3233       H  0.98222948  0.78276738  0.72071048     0.08300
Br3234     Br  0.51677880  0.83512832  0.71785434    -0.02300
C3235       C  0.54705094  0.77198236  0.53404547    -0.08900
C3236       C  0.54495629  0.79669562  0.51433360     0.07300
C3237       C  0.52068171  0.79939398  0.98996346    -0.02700
C3238       C  0.49941970  0.77780456  0.98599507    -0.07100
C3239       C  0.50140946  0.75328813  0.50603578     0.06400
C3240       C  0.52584965  0.75032719  0.52985563    -0.02200
Br3241     Br  0.53289768  0.71621902  0.55493440    -0.01900
H3242       H  0.56569944  0.76921259  0.55220187     0.10300
H3243       H  0.98077933  0.78049230  0.96778152     0.08300
Br3244     Br  0.51369618  0.83280171  0.96344730    -0.02300
C3245       C  0.90110018  0.66707190  0.88622689    -0.08900
C3246       C  0.92596964  0.67647450  0.90713500     0.07300
C3247       C  0.95259344  0.67658173  0.88482902    -0.02700
C3248       C  0.95155604  0.67825064  0.84441401    -0.07100
C3249       C  0.92482532  0.67652127  0.82508147     0.06400
C3250       C  0.90091976  0.66537879  0.84501665    -0.02200
Br3251     Br  0.87145512  0.64131883  0.81852219    -0.01900
H3252       H  0.88239955  0.65937964  0.90167965     0.10300
H3253       H  0.97196844  0.67887882  0.82754702     0.08300
Br3254     Br  0.99050473  0.66768472  0.90417395    -0.02300
C3255       C  0.91020110  0.70368393  0.60223379    -0.08900
C3256       C  0.92599476  0.68203502  0.57610647     0.07300
C3257       C  0.95010024  0.66785997  0.59191200    -0.02700
C3258       C  0.95062775  0.66757999  0.63270632    -0.07100
C3259       C  0.92946082  0.68351529  0.65818980     0.06400
C3260       C  0.91347689  0.70592382  0.64309290    -0.02200
Br3261     Br  0.90097752  0.74268030  0.67477911    -0.01900
H3262       H  0.89757990  0.72064407  0.59103780     0.10300
H3263       H  0.96890210  0.65683622  0.64463925     0.08300
Br3264     Br  0.98573866  0.65352008  0.56251458    -0.02300
loop_ 
_geom_bond_atom_site_label_1 
_geom_bond_atom_site_label_2 
_geom_bond_distance 
_geom_bond_site_symmetry_2 
_ccdc_geom_bond_type 
C1            C3   1.536       .  S
C1            C5   1.557       .  S
C1            C4   1.540       .  S
C1          C390   1.500       .  S
C2            C6   1.551       .  S
C2            C8   1.565       .  S
C2            C7   1.533       .  S
C2          C400   1.503       .  S
C3           C11   1.388       .  A
C3          C414   1.379       .  A
C4           C15   1.390       .  A
C4          C415   1.378       .  A
C5           C19   1.385       .  A
C5          C416   1.394       .  A
C6            C9   1.390       .  A
C6          C411   1.379   1_554  A
C7           C13   1.380       .  A
C7          C412   1.378   1_554  A
C8           C16   1.404       .  A
C8          C413   1.394   1_554  A
C9           H22   1.082       .  S
C9          N418   1.360   1_554  A
N10          C11   1.359       .  A
N10         C417   1.360       .  A
N10         C107   1.444       .  S
C11          H12   1.082       .  S
C13          H23   1.082       .  S
C13          N14   1.354   1_554  A
N14         C423   1.359       .  A
N14        C2015   1.438   1_556  S
C15          H21   1.082       .  S
C15         N422   1.359       .  A
C16          H18   1.081       .  S
C16          N17   1.366   1_554  A
N17         C427   1.361       .  A
N17         C250   1.459       .  S
C19          H20   1.082       .  S
C19         N425   1.361       .  A
C24          C26   1.545       .  S
C24          C28   1.538       .  S
C24          C27   1.528       .  S
C24         C403   1.503       .  S
C25          C29   1.531       .  S
C25          C31   1.537       .  S
C25          C30   1.548       .  S
C25         C393   1.503       .  S
C26          C34   1.386       .  A
C26          C29   1.389       .  A
C27          C38   1.377       .  A
C27          C30   1.382       .  A
C28          C42   1.371       .  A
C28          C31   1.386       .  A
C29          C32   1.370       .  A
C30          C36   1.386       .  A
C31          C39   1.384       .  A
C32          H45   1.083       .  S
C32          N33   1.353       .  A
N33          C34   1.359       .  A
N33         C133   1.425       .  S
C34          H35   1.080       .  S
C36          H46   1.081       .  S
C36          N37   1.362       .  A
N37          C38   1.356       .  A
N37        C2005   1.444       .  S
C38          H44   1.083       .  S
C39          H41   1.082       .  S
C39          N40   1.357       .  A
N40          C42   1.353       .  A
N40         C284   1.428       .  S
C42          H43   1.082       .  S
C47          C49   1.516       .  S
C47          C51   1.509       .  S
C47          C50   1.539       .  S
C47         C363   1.502       .  S
C48          C52   1.563       .  S
C48          C54   1.547       .  S
C48          C53   1.522       .  S
C48         C353   1.505       .  S
C49          C57   1.361       .  A
C49         C460   1.401   1_554  A
C50          C61   1.379       .  A
C50         C461   1.394   1_554  A
C51          C65   1.368       .  A
C51         C462   1.394   1_554  A
C52          C55   1.408       .  A
C52         C457   1.401       .  A
C53          C59   1.373       .  A
C53         C458   1.394       .  A
C54          C62   1.397       .  A
C54         C459   1.394       .  A
C55          H68   1.082       .  S
C55         N464   1.363       .  A
N56          C57   1.343   1_556  A
N56         C463   1.363       .  A
N56         C240   1.441   1_556  S
C57          H58   1.083       .  S
C59          H69   1.083       .  S
C59         N468   1.347       .  A
N60          C61   1.349       .  A
N60         C467   1.347   1_554  A
N60        C1159   1.428       .  S
C61          H67   1.082       .  S
C62          H64   1.082       .  S
C62         N471   1.357       .  A
N63          C65   1.342       .  A
N63         C470   1.357   1_554  A
N63         C103   1.433       .  S
C65          H66   1.083       .  S
C70          C72   1.535       .  S
C70          C74   1.524       .  S
C70          C73   1.543       .  S
C70         C350   1.506       .  S
C71          C75   1.543       .  S
C71          C77   1.524       .  S
C71          C76   1.539       .  S
C71         C360   1.500       .  S
C72          C80   1.378       .  A
C72          C75   1.407       .  A
C73          C84   1.380       .  A
C73          C76   1.389       .  A
C74          C88   1.377       .  A
C74          C77   1.379       .  A
C75          C78   1.389       .  A
C76          C82   1.377       .  A
C77          C85   1.378       .  A
C78          H91   1.082       .  S
C78          N79   1.347       .  A
N79          C80   1.346       .  A
N79         C277   1.422       .  S
C80          H81   1.083       .  S
C82          H92   1.082       .  S
C82          N83   1.354       .  A
N83          C84   1.358       .  A
N83        C1146   1.435       .  S
C84          H90   1.082       .  S
C85          H87   1.082       .  S
C85          N86   1.351       .  A
N86          C88   1.355       .  A
N86         C129   1.428       .  S
C88          H89   1.083       .  S
O93         Ni99   1.910       .  S
O93         C522   1.274       .  A
O94        Ni525   1.921   1_565  S
O94        C1327   1.273       .  A
O95         H118   0.967       .  S
O95        Ni111   1.956       .  S
O95        Ni507   1.910   1_554  S
O95       Ni1749   1.893   1_454  S
C96         N154   1.446       .  S
C96         O113   1.294       .  A
C96         O105   1.281       .  A
O97       Ni1748   1.910       .  S
O97         C103   1.275       .  A
O98        Ni116   1.958       .  S
O98         C916   1.274       .  A
Ni99        O102   1.928   1_455  S
Ni99        O104   1.955       .  S
Ni99        O503   1.910       .  S
C100        O110   1.300       .  A
C100        O914   1.274   1_545  A
C100        C132   1.567       .  S
O101       Ni525   1.956       .  S
O101        C107   1.288       .  A
O102       C1739   1.282       .  A
C103       O1318   1.271   1_554  A
O104        C106   1.273       .  A
O105       Ni116   1.923       .  S
C106        O112   1.299       .  A
C106        C126   1.565       .  S
C107       O1734   1.282       .  A
H108        O517   0.967       .  S
O109        H516   0.967   1_554  S
O109       Ni116   1.908       .  S
O109      Ni2565   1.949   1_454  S
O109       Ni927   1.891       .  S
O110       Ni111   2.027       .  S
Ni111       O115   1.932       .  S
Ni111       O929   1.965   1_545  S
Ni111       O925   1.892   1_545  S
O112      Ni2157   2.024   1_455  S
O113       Ni927   1.967       .  S
C114        N207   1.437       .  S
C114        O115   1.277       .  A
C114        O501   1.274   1_554  A
Ni116      O1729   1.910   1_455  S
Ni117       O502   1.921   1_545  S
Ni117       O509   1.956       .  S
Ni117      O2152   2.024       .  S
Ni117      O1727   1.893   1_556  S
Ni117      O2557   1.952   1_546  S
O119       Ni125   1.915       .  S
O119        C140   1.273       .  A
O120       Ni143   1.915       .  S
O120        C945   1.277   1_545  A
O121        H144   0.967       .  S
O121       Ni125   1.905       .  S
O121       Ni137   1.935       .  S
O121      Ni1775   1.892   1_455  S
C122        N177   1.422       .  S
C122        O139   1.283       .  A
C122        O131   1.279       .  A
O123      Ni1774   1.906       .  S
O123        C129   1.270       .  A
O124       Ni142   1.937       .  S
O124        C942   1.270       .  A
Ni125       O128   1.915       .  S
Ni125       O130   1.942       .  S
C126        O136   1.304       .  A
C126        O940   1.270       .  A
O127       Ni143   1.931       .  S
O127        C133   1.283       .  A
O128       C1765   1.280   1_455  A
C129        O936   1.276       .  A
O130        C132   1.271       .  A
O131       Ni142   1.911       .  S
C132        O138   1.304       .  A
C133       O1760   1.280       .  A
H134        O135   0.967       .  S
O135       Ni142   1.907       .  S
O135      Ni2591   1.935   1_455  S
O135       Ni953   1.889       .  S
O136       Ni137   2.039       .  S
Ni137       O141   1.915       .  S
Ni137       O955   1.929   1_545  S
Ni137       O951   1.888   1_545  S
O138      Ni1775   2.038   1_455  S
O139       Ni953   1.928       .  S
C140        N230   1.431       .  S
C140        O141   1.277       .  A
Ni142      O1755   1.906   1_455  S
Ni143      O1770   2.038       .  S
Ni143      O1753   1.892       .  S
Ni143      O2583   1.936   1_545  S
C145        C313   1.502       .  S
C145        C555   1.553       .  S
C145        C557   1.562       .  S
C145        C556   1.533       .  S
C146        C150   1.539       .  S
C146        C152   1.558       .  S
C146        C151   1.544       .  S
C146        C320   1.503       .  S
C147        C553   1.553   1_554  S
C147        C150   1.378       .  A
C147        C563   1.392       .  A
C148        C553   1.533   1_554  S
C148        C151   1.380       .  A
C148        C567   1.381   1_554  A
C149        C553   1.562   1_554  S
C149        C152   1.393       .  A
C149        C571   1.402   1_554  A
C150        C153   1.389       .  A
C151        C157   1.392       .  A
C152        C160   1.387       .  A
C153        H166   1.082       .  S
C153        N154   1.361       .  A
N154        C563   1.363       .  A
C155        C555   1.392       .  A
C155        H156   1.082       .  S
C155        N562   1.363       .  A
C157        H167   1.082       .  S
C157        N158   1.360       .  A
N158        C567   1.353   1_554  A
N158        C380   1.440       .  S
C159        C556   1.381       .  A
C159        H165   1.083       .  S
C159        N566   1.353       .  A
C160        H162   1.082       .  S
C160        N161   1.363       .  A
N161        C571   1.364   1_554  A
N161        C244   1.457       .  S
C163        C557   1.402       .  A
C163        H164   1.081       .  S
C163        N569   1.364       .  A
C168        C170   1.529       .  S
C168        C172   1.536       .  S
C168        C171   1.545       .  S
C168        C323   1.503       .  S
C169        C173   1.542       .  S
C169        C175   1.541       .  S
C169        C174   1.528       .  S
C169        C310   1.503       .  S
C170        C178   1.369       .  A
C170        C173   1.388       .  A
C171        C182   1.384       .  A
C171        C174   1.381       .  A
C172        C186   1.383       .  A
C172        C175   1.390       .  A
C173        C176   1.385       .  A
C174        C180   1.378       .  A
C175        C183   1.370       .  A
C176        H189   1.081       .  S
C176        N177   1.357       .  A
N177        C178   1.353       .  A
C178        H179   1.083       .  S
C180        H190   1.083       .  S
C180        N181   1.357       .  A
N181        C182   1.360       .  A
N181        C370   1.443       .  S
C182        H188   1.082       .  S
C183        H185   1.082       .  S
C183        N184   1.355       .  A
N184        C186   1.357       .  A
N184        C273   1.429       .  S
C186        H187   1.082       .  S
C191        C193   1.547       .  S
C191        C195   1.552       .  S
C191        C194   1.533       .  S
C191        C300   1.507       .  S
C192        C196   1.518       .  S
C192        C198   1.532       .  S
C192        C197   1.544       .  S
C192        C293   1.509       .  S
C193        C201   1.401       .  A
C193        C604   1.371       .  A
C194        C205   1.366       .  A
C194        C605   1.394       .  A
C195        C209   1.404       .  A
C195        C606   1.408       .  A
C196        C199   1.364       .  A
C196        C601   1.371       .  A
C197        C203   1.380       .  A
C197        C602   1.394       .  A
C198        C206   1.372       .  A
C198        C603   1.408       .  A
C199        H212   1.083       .  S
C199        N608   1.351       .  A
N200        C201   1.366       .  A
N200        C607   1.351   1_554  A
N200        C251   1.442       .  S
C201        H202   1.082       .  S
C203        H213   1.081       .  S
C203        N612   1.359       .  A
N204        C205   1.352       .  A
N204        C611   1.359   1_554  A
N204        C340   1.430       .  S
C205        H211   1.082       .  S
C206        H208   1.083       .  S
C206        N615   1.343       .  A
N207        C209   1.355       .  A
N207        C614   1.343   1_554  A
C209        H210   1.082       .  S
C214        C216   1.538       .  S
C214        C218   1.533       .  S
C214        C217   1.540       .  S
C214        C290   1.504       .  S
C215        C219   1.531       .  S
C215        C221   1.527       .  S
C215        C220   1.545       .  S
C215        C303   1.506       .  S
C216        C224   1.389       .  A
C216        C219   1.398       .  A
C217        C228   1.376       .  A
C217        C220   1.391       .  A
C218        C232   1.381       .  A
C218        C221   1.384       .  A
C219        C222   1.375       .  A
C220        C226   1.385       .  A
C221        C229   1.376       .  A
C222        H235   1.083       .  S
C222        N223   1.347       .  A
N223        C224   1.351       .  A
N223        C266   1.424       .  S
C224        H225   1.082       .  S
C226        H236   1.082       .  S
C226        N227   1.357       .  A
N227        C228   1.351       .  A
N227        C333   1.435       .  S
C228        H234   1.082       .  S
C229        H231   1.083       .  S
C229        N230   1.356       .  A
N230        C232   1.353       .  A
C232        H233   1.082       .  S
O237       Ni243   1.938       .  S
O237        C258   1.269       .  A
O238       Ni261   1.940       .  S
O238        C247   1.277       .  A
O239        H262   0.967       .  S
O239       Ni243   1.913       .  S
O239       Ni255   1.911       .  S
O239       Ni669   1.930       .  S
C240        O249   1.281       .  A
C240        O665   1.278   1_554  A
O241       Ni260   1.937       .  S
O241        C247   1.270       .  A
O242       Ni260   1.909       .  S
O242        C244   1.268       .  A
Ni243       O246   1.918       .  S
Ni243       O248   1.912       .  S
C244        O662   1.283   1_554  A
O245       Ni261   1.936       .  S
O245        C251   1.280       .  A
O246        C659   1.280       .  A
C247        C276   1.493       .  S
O248        C658   1.269       .  A
O249       Ni260   1.918       .  S
C250        O256   1.281   1_556  A
C250        O656   1.269       .  A
C251        O654   1.280   1_554  A
H252        O253   0.966       .  S
O253       Ni261   1.912       .  S
O253       Ni260   1.910       .  S
O253       Ni663   1.929   1_554  S
O254       Ni255   1.976       .  S
O254        C652   1.283       .  A
Ni255       O259   1.936       .  S
Ni255       O257   1.933       .  S
Ni255       O661   1.929       .  S
O256       Ni261   1.974       .  S
O257        C648   1.278       .  A
C258        O259   1.275       .  A
C258        C270   1.490       .  S
Ni261       O647   1.930   1_554  S
O263       Ni269   1.902       .  S
O263        C284   1.264       .  A
O264       Ni287   1.924       .  S
O264        C273   1.269       .  A
O265        H288   0.967       .  S
O265       Ni269   1.897       .  S
O265       Ni287   1.894       .  S
O265       Ni281   1.921       .  S
C266        O283   1.279       .  A
C266        O275   1.282       .  A
O267       Ni286   1.904       .  S
O267        C273   1.263       .  A
O268       Ni286   1.905       .  S
O268        C270   1.263       .  A
Ni269       O272   1.924       .  S
Ni269       O274   1.907       .  S
C270        O280   1.278       .  A
O271       Ni287   1.920       .  S
O271        C277   1.282       .  A
O272        C277   1.281       .  A
O274        C276   1.263       .  A
O275       Ni286   1.927       .  S
C276        O282   1.279       .  A
H278        O279   0.965       .  S
O279       Ni287   1.927       .  S
O279       Ni281   1.897       .  S
O279       Ni286   1.897       .  S
O280       Ni281   1.959       .  S
Ni281       O285   1.918       .  S
Ni281       O283   1.918       .  S
O282       Ni287   1.964       .  S
C284        O285   1.267       .  A
C289        C290   1.408       .  A
C289        C294   1.387       .  A
C289        H296   1.083       .  S
C290        C291   1.409       .  A
C291        C292   1.382       .  A
C291       Br298   1.926       .  S
C292        C293   1.410       .  A
C292        H297   1.084       .  S
C293        C294   1.407       .  A
C294       Br295   1.916       .  S
C299        C300   1.403       .  A
C299        C304   1.388       .  A
C299        H306   1.081       .  S
C300        C301   1.415       .  A
C301        C302   1.387       .  A
C301       Br308   1.926       .  S
C302        C303   1.402       .  A
C302        H307   1.080       .  S
C303        C304   1.413       .  A
C304       Br305   1.925       .  S
C309        C310   1.399       .  A
C309        C314   1.387       .  A
C309        H316   1.080       .  S
C310        C311   1.413       .  A
C311        C312   1.387       .  A
C311       Br318   1.927       .  S
C312        C313   1.400       .  A
C312        H317   1.078       .  S
C313        C314   1.419       .  A
C314       Br315   1.930       .  S
C319        C320   1.406       .  A
C319        C324   1.389       .  A
C319        H326   1.082       .  S
C320        C321   1.415       .  A
C321        C322   1.386       .  A
C321       Br328   1.925       .  S
C322        C323   1.403       .  A
C322        H327   1.082       .  S
C323        C324   1.409       .  A
C324       Br325   1.923       .  S
C329       C1146   1.403       .  A
C329       C1150   1.402       .  A
C329        H336   1.083       .  S
C330        C331   1.411   1_565  A
C330       C1145   1.403       .  A
C330        N899   1.436       .  S
C331        C332   1.395       .  A
C331       Br338   1.919       .  S
C332        C333   1.400       .  A
C332        H337   1.083       .  S
C333        C334   1.410       .  A
C334       C1145   1.402   1_545  A
C334       Br335   1.918       .  S
C339        C340   1.401       .  A
C339        C344   1.389       .  A
C339        H346   1.082       .  S
C340        C341   1.407   1_554  A
C341       C1158   1.395   1_545  A
C341       Br348   1.916   1_545  S
C342       C1157   1.395       .  A
C342       C1159   1.403   1_556  A
C342        H347   1.083       .  S
C343        C344   1.410   1_565  A
C343       C1158   1.404   1_554  A
C343        N876   1.428       .  S
C344       Br345   1.923       .  S
C349        C350   1.399       .  A
C349        C354   1.386       .  A
C349        H356   1.082       .  S
C350        C351   1.415       .  A
C351        C352   1.389       .  A
C351       Br358   1.926       .  S
C352        C353   1.402       .  A
C352        H357   1.084       .  S
C353        C354   1.419       .  A
C354       Br355   1.928       .  S
C359        C360   1.405       .  A
C359        C364   1.384       .  A
C359        H366   1.081       .  S
C360        C361   1.415       .  A
C361        C362   1.382       .  A
C361       Br368   1.931       .  S
C362        C363   1.403       .  A
C362        H367   1.082       .  S
C363        C364   1.410       .  A
C364       Br365   1.926       .  S
C369        C370   1.404       .  A
C369        C374   1.402       .  A
C369        H376   1.083       .  S
C370        C371   1.412       .  A
C371        C372   1.402       .  A
C371       Br378   1.920       .  S
C372        C373   1.405       .  A
C372       H2009   1.083   1_455  S
C373        C374   1.413       .  A
C373       N1669   1.444   1_455  S
C374       Br375   1.919       .  S
H377       C2004   1.083       .  S
C379        C380   1.403       .  A
C379        C384   1.405       .  A
C379        H386   1.083       .  S
C380        C789   1.409       .  A
C381        C382   1.404   1_455  A
C381        C788   1.409       .  A
C381       Br388   1.915       .  S
C382        C791   1.402   1_655  A
C382       H2019   1.083       .  S
C383        C384   1.408       .  A
C383        C790   1.402   1_455  A
C383       N1646   1.438   1_454  S
C384       Br385   1.916   1_554  S
H387       C2014   1.083       .  S
C389        C390   1.402       .  A
C389        C394   1.388       .  A
C389        H396   1.082       .  S
C390        C391   1.412       .  A
C391        C392   1.387       .  A
C391       Br398   1.927       .  S
C392        C393   1.404       .  A
C392        H397   1.082       .  S
C393        C394   1.413       .  A
C394       Br395   1.925       .  S
C399        C400   1.398       .  A
C399        C404   1.387       .  A
C399        H406   1.078       .  S
C400        C401   1.422       .  A
C401        C402   1.387       .  A
C401       Br408   1.931       .  S
C402        C403   1.396       .  A
C402        H407   1.080       .  S
C403        C404   1.415       .  A
C404       Br405   1.927       .  S
C409        C411   1.536       .  S
C409        C413   1.557       .  S
C409        C412   1.540       .  S
C409        C798   1.500       .  S
C410        C414   1.551       .  S
C410        C416   1.565       .  S
C410        C415   1.533       .  S
C410        C808   1.503       .  S
C411        C419   1.388       .  A
C412        C423   1.390       .  A
C413        C427   1.385       .  A
C414        C417   1.390       .  A
C415        C421   1.380       .  A
C416        C424   1.404       .  A
C417        H430   1.082       .  S
N418        C419   1.359       .  A
N418        C515   1.444       .  S
C419        H420   1.082       .  S
C421        H431   1.082       .  S
C421        N422   1.354       .  A
N422       C2423   1.438       .  S
C423        H429   1.082       .  S
C424        H426   1.081       .  S
C424        N425   1.366       .  A
N425        C658   1.459       .  S
C427        H428   1.082       .  S
C432        C434   1.545       .  S
C432        C436   1.538       .  S
C432        C435   1.528       .  S
C432        C811   1.503       .  S
C433        C437   1.531       .  S
C433        C439   1.537       .  S
C433        C438   1.548       .  S
C433        C801   1.503       .  S
C434        C442   1.386       .  A
C434        C437   1.389       .  A
C435        C446   1.377       .  A
C435        C438   1.382       .  A
C436        C450   1.371       .  A
C436        C439   1.386       .  A
C437        C440   1.370       .  A
C438        C444   1.386       .  A
C439        C447   1.384       .  A
C440        H453   1.083       .  S
C440        N441   1.353       .  A
N441        C442   1.359       .  A
N441        C541   1.425       .  S
C442        H443   1.080       .  S
C444        H454   1.081       .  S
C444        N445   1.362       .  A
N445        C446   1.356       .  A
N445       C2413   1.444       .  S
C446        H452   1.083       .  S
C447        H449   1.082       .  S
C447        N448   1.357       .  A
N448        C450   1.353       .  A
N448        C692   1.428       .  S
C450        H451   1.082       .  S
C455        C457   1.516       .  S
C455        C459   1.509       .  S
C455        C458   1.539       .  S
C455        C771   1.502       .  S
C456        C460   1.563       .  S
C456        C462   1.547       .  S
C456        C461   1.522       .  S
C456        C761   1.505       .  S
C457        C465   1.361       .  A
C458        C469   1.379       .  A
C459        C473   1.368       .  A
C460        C463   1.408       .  A
C461        C467   1.373       .  A
C462        C470   1.397       .  A
C463        H476   1.082       .  S
N464        C465   1.343       .  A
N464        C648   1.441       .  S
C465        H466   1.083       .  S
C467        H477   1.083       .  S
N468        C469   1.349       .  A
N468       C1567   1.428       .  S
C469        H475   1.082       .  S
C470        H472   1.082       .  S
N471        C473   1.342       .  A
N471        C511   1.433       .  S
C473        H474   1.083       .  S
C478        C480   1.535       .  S
C478        C482   1.524       .  S
C478        C481   1.543       .  S
C478        C758   1.506       .  S
C479        C483   1.543       .  S
C479        C485   1.524       .  S
C479        C484   1.539       .  S
C479        C768   1.500       .  S
C480        C488   1.378       .  A
C480        C483   1.407       .  A
C481        C492   1.380       .  A
C481        C484   1.389       .  A
C482        C496   1.377       .  A
C482        C485   1.379       .  A
C483        C486   1.389       .  A
C484        C490   1.377       .  A
C485        C493   1.378       .  A
C486        H499   1.082       .  S
C486        N487   1.347       .  A
N487        C488   1.346       .  A
N487        C685   1.422       .  S
C488        H489   1.083       .  S
C490        H500   1.082       .  S
C490        N491   1.354       .  A
N491        C492   1.358       .  A
N491       C1554   1.435       .  S
C492        H498   1.082       .  S
C493        H495   1.082       .  S
C493        N494   1.351       .  A
N494        C496   1.355       .  A
N494        C537   1.428       .  S
C496        H497   1.083       .  S
O501       Ni507   1.910       .  S
O502        C919   1.273   1_556  A
O503        H526   0.967       .  S
O503      Ni2157   1.893   1_455  S
O503       Ni519   1.956       .  S
C504        N562   1.446       .  S
C504        O521   1.294       .  A
C504        O513   1.281       .  A
O505      Ni2156   1.910       .  S
O505        C511   1.275       .  A
O506       Ni524   1.958       .  S
O506       C1324   1.274       .  A
Ni507       O510   1.928   1_455  S
Ni507       O512   1.955       .  S
C508       O1322   1.274   1_545  A
C508        O518   1.300       .  A
C508        C540   1.567       .  S
O509        C515   1.288       .  A
O510       C2147   1.282       .  A
C511        O910   1.271       .  A
O512        C514   1.273       .  A
O513       Ni524   1.923       .  S
C514        O520   1.299       .  A
C514        C534   1.565       .  S
C515       O2142   1.282       .  A
O517      Ni2973   1.949   1_455  S
O517      Ni1335   1.891       .  S
O517       Ni524   1.908       .  S
O518       Ni519   2.027       .  S
Ni519       O523   1.932       .  S
Ni519      O1337   1.965   1_545  S
Ni519      O1333   1.892   1_545  S
O520      Ni1749   2.024   1_455  S
O521      Ni1335   1.967       .  S
C522        N615   1.437       .  S
C522        O523   1.277       .  A
Ni524      O2137   1.910   1_455  S
Ni525      O1744   2.024       .  S
Ni525      O2135   1.893       .  S
Ni525      O2965   1.952   1_545  S
O527       Ni533   1.915       .  S
O527        C548   1.273       .  A
O528       Ni551   1.915       .  S
O528       C1353   1.277   1_545  A
O529        H552   0.967       .  S
O529       Ni533   1.905       .  S
O529      Ni2183   1.892   1_455  S
O529       Ni545   1.935       .  S
C530        N585   1.422       .  S
C530        O547   1.283       .  A
C530        O539   1.279       .  A
O531      Ni2182   1.906       .  S
O531        C537   1.270       .  A
O532       Ni550   1.937       .  S
O532       C1350   1.270       .  A
Ni533       O536   1.915       .  S
Ni533       O538   1.942       .  S
C534       O1348   1.270       .  A
C534        O544   1.304       .  A
O535       Ni551   1.931       .  S
O535        C541   1.283       .  A
O536       C2173   1.280   1_455  A
C537       O1344   1.276       .  A
O538        C540   1.271       .  A
O539       Ni550   1.911       .  S
C540        O546   1.304       .  A
C541       O2168   1.280       .  A
H542        O543   0.967       .  S
O543      Ni2999   1.935   1_455  S
O543      Ni1361   1.889       .  S
O543       Ni550   1.907       .  S
O544       Ni545   2.039       .  S
Ni545       O549   1.915       .  S
Ni545      O1363   1.929   1_545  S
Ni545      O1359   1.888   1_545  S
O546      Ni2183   2.038   1_455  S
O547      Ni1361   1.928       .  S
C548        N638   1.431       .  S
C548        O549   1.277       .  A
Ni550      O2163   1.906   1_455  S
Ni551      O2178   2.038       .  S
Ni551      O2161   1.892       .  S
Ni551      O2991   1.936   1_545  S
C553        C721   1.502       .  S
C554        C558   1.539       .  S
C554        C560   1.558       .  S
C554        C559   1.544       .  S
C554        C728   1.503       .  S
C555        C558   1.378       .  A
C556        C559   1.380       .  A
C557        C560   1.393       .  A
C558        C561   1.389       .  A
C559        C565   1.392       .  A
C560        C568   1.387       .  A
C561        H574   1.082       .  S
C561        N562   1.361       .  A
C563        H564   1.082   1_554  S
C565        H575   1.082       .  S
C565        N566   1.360       .  A
N566        C788   1.440       .  S
C567        H573   1.083       .  S
C568        H570   1.082       .  S
C568        N569   1.363       .  A
N569        C652   1.457       .  S
C571        H572   1.081       .  S
C576        C578   1.529       .  S
C576        C580   1.536       .  S
C576        C579   1.545       .  S
C576        C731   1.503       .  S
C577        C581   1.542       .  S
C577        C583   1.541       .  S
C577        C582   1.528       .  S
C577        C718   1.503       .  S
C578        C586   1.369       .  A
C578        C581   1.388       .  A
C579        C590   1.384       .  A
C579        C582   1.381       .  A
C580        C594   1.383       .  A
C580        C583   1.390       .  A
C581        C584   1.385       .  A
C582        C588   1.378       .  A
C583        C591   1.370       .  A
C584        H597   1.081       .  S
C584        N585   1.357       .  A
N585        C586   1.353       .  A
C586        H587   1.083       .  S
C588        H598   1.083       .  S
C588        N589   1.357       .  A
N589        C590   1.360       .  A
N589        C778   1.443       .  S
C590        H596   1.082       .  S
C591        H593   1.082       .  S
C591        N592   1.355       .  A
N592        C594   1.357       .  A
N592        C681   1.429       .  S
C594        H595   1.082       .  S
C599        C601   1.547       .  S
C599        C603   1.552       .  S
C599        C602   1.533       .  S
C599        C708   1.507       .  S
C600        C604   1.518   1_556  S
C600        C606   1.532   1_556  S
C600        C605   1.544   1_556  S
C600        C701   1.509       .  S
C601        C609   1.401       .  A
C602        C613   1.366       .  A
C603        C617   1.404       .  A
C604        C607   1.364   1_554  A
C605        C611   1.380   1_554  A
C606        C614   1.372   1_554  A
C607        H620   1.083       .  S
N608        C609   1.366       .  A
N608        C659   1.442       .  S
C609        H610   1.082       .  S
C611        H621   1.081       .  S
N612        C613   1.352       .  A
N612        C748   1.430       .  S
C613        H619   1.082       .  S
C614        H616   1.083       .  S
N615        C617   1.355       .  A
C617        H618   1.082       .  S
C622        C624   1.538       .  S
C622        C626   1.533       .  S
C622        C625   1.540       .  S
C622        C698   1.504       .  S
C623        C627   1.531       .  S
C623        C629   1.527       .  S
C623        C628   1.545       .  S
C623        C711   1.506       .  S
C624        C632   1.389       .  A
C624        C627   1.398       .  A
C625        C636   1.376       .  A
C625        C628   1.391       .  A
C626        C640   1.381       .  A
C626        C629   1.384       .  A
C627        C630   1.375       .  A
C628        C634   1.385       .  A
C629        C637   1.376       .  A
C630        H643   1.083       .  S
C630        N631   1.347       .  A
N631        C632   1.351       .  A
N631        C674   1.424       .  S
C632        H633   1.082       .  S
C634        H644   1.082       .  S
C634        N635   1.357       .  A
N635        C636   1.351       .  A
N635        C741   1.435       .  S
C636        H642   1.082       .  S
C637        H639   1.083       .  S
C637        N638   1.356       .  A
N638        C640   1.353       .  A
C640        H641   1.082       .  S
O645       Ni651   1.938       .  S
O645        C666   1.269       .  A
O646       Ni669   1.940       .  S
O646        C655   1.277       .  A
O647        H670   0.967       .  S
O647       Ni651   1.913       .  S
O647       Ni663   1.911       .  S
C648        O657   1.281       .  A
O649       Ni668   1.937       .  S
O649        C655   1.270       .  A
O650       Ni668   1.909       .  S
O650        C652   1.268       .  A
Ni651       O654   1.918       .  S
Ni651       O656   1.912       .  S
O653       Ni669   1.936       .  S
O653        C659   1.280       .  A
C655        C684   1.493       .  S
O657       Ni668   1.918       .  S
C658        O664   1.281       .  A
H660        O661   0.966       .  S
O661       Ni669   1.912       .  S
O661       Ni668   1.910       .  S
O662       Ni663   1.976       .  S
Ni663       O667   1.936       .  S
Ni663       O665   1.933       .  S
O664       Ni669   1.974       .  S
C666        O667   1.275       .  A
C666        C678   1.490       .  S
O671       Ni677   1.902       .  S
O671        C692   1.264       .  A
O672       Ni695   1.924       .  S
O672        C681   1.269       .  A
O673        H696   0.967       .  S
O673       Ni677   1.897       .  S
O673       Ni695   1.894       .  S
O673       Ni689   1.921       .  S
C674        O691   1.279       .  A
C674        O683   1.282       .  A
O675       Ni694   1.904       .  S
O675        C681   1.263       .  A
O676       Ni694   1.905       .  S
O676        C678   1.263       .  A
Ni677       O680   1.924       .  S
Ni677       O682   1.907       .  S
C678        O688   1.278       .  A
O679       Ni695   1.920       .  S
O679        C685   1.282       .  A
O680        C685   1.281       .  A
O682        C684   1.263       .  A
O683       Ni694   1.927       .  S
C684        O690   1.279       .  A
H686        O687   0.965       .  S
O687       Ni695   1.927       .  S
O687       Ni689   1.897       .  S
O687       Ni694   1.897       .  S
O688       Ni689   1.959       .  S
Ni689       O693   1.918       .  S
Ni689       O691   1.918       .  S
O690       Ni695   1.964       .  S
C692        O693   1.267       .  A
C697        C698   1.408       .  A
C697        C702   1.387       .  A
C697        H704   1.083       .  S
C698        C699   1.409       .  A
C699        C700   1.382       .  A
C699       Br706   1.926       .  S
C700        C701   1.410       .  A
C700        H705   1.084       .  S
C701        C702   1.407       .  A
C702       Br703   1.916       .  S
C707        C708   1.403       .  A
C707        C712   1.388       .  A
C707        H714   1.081       .  S
C708        C709   1.415       .  A
C709        C710   1.387       .  A
C709       Br716   1.926       .  S
C710        C711   1.402       .  A
C710        H715   1.080       .  S
C711        C712   1.413       .  A
C712       Br713   1.925       .  S
C717        C718   1.399       .  A
C717        C722   1.387       .  A
C717        H724   1.080       .  S
C718        C719   1.413       .  A
C719        C720   1.387       .  A
C719       Br726   1.927       .  S
C720        C721   1.400       .  A
C720        H725   1.078       .  S
C721        C722   1.419       .  A
C722       Br723   1.930       .  S
C727        C728   1.406       .  A
C727        C732   1.389       .  A
C727        H734   1.082       .  S
C728        C729   1.415       .  A
C729        C730   1.386       .  A
C729       Br736   1.925       .  S
C730        C731   1.403       .  A
C730        H735   1.082       .  S
C731        C732   1.409       .  A
C732       Br733   1.923       .  S
C737       C1554   1.403       .  A
C737       C1558   1.402       .  A
C737        H744   1.083       .  S
C738       C1553   1.403       .  A
C738        C739   1.411   1_565  A
C738       N1307   1.436       .  S
C739        C740   1.395       .  A
C739       Br746   1.919       .  S
C740        C741   1.400       .  A
C740        H745   1.083       .  S
C741        C742   1.410       .  A
C742       C1553   1.402   1_545  A
C742       Br743   1.918       .  S
C747        C748   1.401       .  A
C747        C752   1.389       .  A
C747        H754   1.082       .  S
C748        C749   1.407       .  A
C749       C1566   1.395   1_545  A
C749       Br756   1.916   1_545  S
C750       C1565   1.395       .  A
C750       C1567   1.403       .  A
C750        H755   1.083       .  S
C751       C1566   1.404       .  A
C751        C752   1.410   1_565  A
C751       N1284   1.428       .  S
C752       Br753   1.923       .  S
C757        C758   1.399       .  A
C757        C762   1.386       .  A
C757        H764   1.082       .  S
C758        C759   1.415       .  A
C759        C760   1.389       .  A
C759       Br766   1.926       .  S
C760        C761   1.402       .  A
C760        H765   1.084       .  S
C761        C762   1.419       .  A
C762       Br763   1.928       .  S
C767        C768   1.405       .  A
C767        C772   1.384       .  A
C767        H774   1.081       .  S
C768        C769   1.415       .  A
C769        C770   1.382       .  A
C769       Br776   1.931       .  S
C770        C771   1.403       .  A
C770        H775   1.082       .  S
C771        C772   1.410       .  A
C772       Br773   1.926       .  S
C777        C778   1.404       .  A
C777        C782   1.402       .  A
C777        H784   1.083       .  S
C778        C779   1.412       .  A
C779        C780   1.402       .  A
C779       Br786   1.920       .  S
C780        C781   1.405       .  A
C780       H2417   1.083   1_455  S
C781        C782   1.413       .  A
C781       N2077   1.444   1_455  S
C782       Br783   1.919       .  S
H785       C2412   1.083       .  S
C787        C788   1.403       .  A
C787        C792   1.405       .  A
C787        H794   1.083       .  S
C789        C790   1.404   1_455  A
C789       Br796   1.915       .  S
C790       H2427   1.083       .  S
C791        C792   1.408       .  A
C791       N2054   1.438   1_455  S
C792       Br793   1.916       .  S
H795       C2422   1.083       .  S
C797        C798   1.402       .  A
C797        C802   1.388       .  A
C797        H804   1.082       .  S
C798        C799   1.412       .  A
C799        C800   1.387       .  A
C799       Br806   1.927       .  S
C800        C801   1.404       .  A
C800        H805   1.082       .  S
C801        C802   1.413       .  A
C802       Br803   1.925       .  S
C807        C808   1.398       .  A
C807        C812   1.387       .  A
C807        H814   1.078       .  S
C808        C809   1.422       .  A
C809        C810   1.387       .  A
C809       Br816   1.931       .  S
C810        C811   1.396       .  A
C810        H815   1.080       .  S
C811        C812   1.415       .  A
C812       Br813   1.927       .  S
C817        C819   1.536       .  S
C817        C821   1.556       .  S
C817        C820   1.537       .  S
C817       C1206   1.500       .  S
C818        C822   1.551       .  S
C818        C824   1.565       .  S
C818        C823   1.534       .  S
C818       C1216   1.503       .  S
C819        C827   1.387       .  A
C819       C1230   1.381       .  A
C820        C831   1.387       .  A
C820       C1231   1.375       .  A
C821        C835   1.384       .  A
C821       C1232   1.394       .  A
C822       C1227   1.381   1_554  A
C822        C825   1.389       .  A
C823       C1228   1.375   1_554  A
C823        C829   1.381       .  A
C824       C1229   1.394   1_554  A
C824        C832   1.404       .  A
C825        H838   1.082       .  S
C825       N1234   1.360   1_554  A
N826       C1233   1.360       .  A
N826        C827   1.359       .  A
N826        C923   1.443       .  S
C827        H828   1.082       .  S
C829        H839   1.082       .  S
C829        N830   1.357       .  A
N830       C1239   1.360   1_554  A
N830       C2831   1.447       .  S
C831        H837   1.082       .  S
C831       N1238   1.360       .  A
C832        H834   1.081       .  S
C832        N833   1.367   1_554  A
N833       C1243   1.361       .  A
N833       C1066   1.458       .  S
C835        H836   1.082       .  S
C835       N1241   1.361       .  A
C840        C842   1.545       .  S
C840        C844   1.537       .  S
C840        C843   1.529       .  S
C840       C1219   1.501       .  S
C841        C845   1.531       .  S
C841        C847   1.536       .  S
C841        C846   1.548       .  S
C841       C1209   1.502       .  S
C842        C850   1.386       .  A
C842        C845   1.388       .  A
C843        C854   1.379       .  A
C843        C846   1.382       .  A
C844        C858   1.370       .  A
C844        C847   1.386       .  A
C845        C848   1.370       .  A
C846        C852   1.386       .  A
C847        C855   1.383       .  A
C848        H861   1.083       .  S
C848        N849   1.353       .  A
N849        C850   1.357       .  A
N849        C949   1.424       .  S
C850        H851   1.080       .  S
C852        H862   1.081       .  S
C852        N853   1.361       .  A
N853        C854   1.357       .  A
N853       C2821   1.444       .  S
C854        H860   1.083       .  S
C855        H857   1.083       .  S
C855        N856   1.357       .  A
N856        C858   1.352       .  A
N856       C1100   1.427       .  S
C858        H859   1.082       .  S
C863        C865   1.518       .  S
C863        C867   1.510       .  S
C863        C866   1.539       .  S
C863       C1179   1.502       .  S
C864        C868   1.564       .  S
C864        C870   1.548       .  S
C864        C869   1.522       .  S
C864       C1169   1.505       .  S
C865        C873   1.363       .  A
C865       C1276   1.402   1_554  A
C866        C877   1.379       .  A
C866       C1277   1.393   1_554  A
C867        C881   1.369       .  A
C867       C1278   1.393   1_554  A
C868       C1273   1.402       .  A
C868        C871   1.409       .  A
C869       C1274   1.393       .  A
C869        C875   1.372       .  A
C870       C1275   1.393       .  A
C870        C878   1.398       .  A
C871        H884   1.082       .  S
C871       N1280   1.363       .  A
N872       C1279   1.363       .  A
N872        C873   1.344   1_556  A
N872       C1056   1.442   1_556  S
C873        H874   1.083       .  S
C875        H885   1.083       .  S
C875       N1284   1.347       .  A
N876       C1283   1.347   1_554  A
N876        C877   1.350       .  A
C877        H883   1.082       .  S
C878        H880   1.082       .  S
C878       N1287   1.357       .  A
N879       C1286   1.357   1_554  A
N879        C881   1.343       .  A
N879        C919   1.435       .  S
C881        H882   1.083       .  S
C886        C888   1.537       .  S
C886        C890   1.525       .  S
C886        C889   1.543       .  S
C886       C1166   1.506       .  S
C887        C891   1.543       .  S
C887        C893   1.525       .  S
C887        C892   1.540       .  S
C887       C1176   1.500       .  S
C888        C896   1.379       .  A
C888        C891   1.406       .  A
C889        C900   1.380       .  A
C889        C892   1.389       .  A
C890        C904   1.378       .  A
C890        C893   1.379       .  A
C891        C894   1.389       .  A
C892        C898   1.378       .  A
C893        C901   1.379       .  A
C894        H907   1.082       .  S
C894        N895   1.347       .  A
N895        C896   1.347       .  A
N895       C1093   1.424       .  S
C896        H897   1.083       .  S
C898        H908   1.082       .  S
C898        N899   1.355       .  A
N899        C900   1.358       .  A
C900        H906   1.082       .  S
C901        H903   1.082       .  S
C901        N902   1.351       .  A
N902        C904   1.355       .  A
N902        C945   1.429       .  S
C904        H905   1.083       .  S
O909       Ni915   1.911       .  S
O909       C1338   1.274       .  A
O910      Ni1341   1.918       .  S
O911        H934   0.967       .  S
O911      Ni1323   1.911   1_554  S
O911      Ni2565   1.894   1_454  S
O911       Ni927   1.957       .  S
C912        N970   1.447       .  S
C912        O929   1.293       .  A
C912        O921   1.282       .  A
O913      Ni2564   1.912       .  S
O913        C919   1.275       .  A
O914       Ni932   1.957       .  S
Ni915       O918   1.929   1_455  S
Ni915       O920   1.955       .  S
Ni915      O1319   1.911       .  S
C916        O926   1.301       .  A
C916        C948   1.569       .  S
O917      Ni1341   1.952       .  S
O917        C923   1.286       .  A
O918       C2555   1.282       .  A
O920        C922   1.272       .  A
O921       Ni932   1.926       .  S
C922        O928   1.299       .  A
C922        C942   1.563       .  S
C923       O2550   1.282       .  A
H924       O1333   0.967       .  S
O925       H1332   0.967   1_554  S
O925      Ni1749   1.952   1_464  S
O925       Ni932   1.909       .  S
O926       Ni927   2.029       .  S
Ni927       O931   1.935       .  S
O928      Ni2973   2.021   1_455  S
C930       N1023   1.439       .  S
C930       O1317   1.274   1_554  A
C930        O931   1.278       .  A
Ni932      O2545   1.912   1_455  S
Ni933      O1318   1.918       .  S
Ni933      O1325   1.952       .  S
Ni933      O2968   2.021       .  S
Ni933      O2543   1.894   1_556  S
Ni933      O1741   1.949   1_556  S
O935       Ni941   1.916       .  S
O935        C956   1.273       .  A
O936       Ni959   1.913       .  S
O937        H960   0.967       .  S
O937       Ni941   1.903       .  S
O937      Ni2591   1.891   1_455  S
O937       Ni953   1.933       .  S
C938        N993   1.423       .  S
C938        O955   1.283       .  A
C938        O947   1.279       .  A
O939      Ni2590   1.906       .  S
O939        C945   1.270       .  A
O940       Ni958   1.939   1_545  S
Ni941       O944   1.915       .  S
Ni941       O946   1.944       .  S
C942        O952   1.303       .  A
O943       Ni959   1.929       .  S
O943        C949   1.283       .  A
O944       C2581   1.280   1_455  A
O946        C948   1.271       .  A
O947       Ni958   1.912       .  S
C948        O954   1.304       .  A
C949       O2576   1.280       .  A
H950        O951   0.967       .  S
O951      Ni1775   1.936   1_465  S
O951       Ni958   1.907       .  S
O952       Ni953   2.039       .  S
Ni953       O957   1.917       .  S
O954      Ni2591   2.040   1_455  S
C956       N1046   1.431       .  S
C956        O957   1.277       .  A
Ni958      O2571   1.906   1_455  S
Ni959      O2586   2.040       .  S
Ni959      O2569   1.891       .  S
Ni959      O1767   1.935       .  S
C961       C1371   1.553       .  S
C961       C1373   1.561       .  S
C961       C1372   1.534       .  S
C961       C1129   1.500       .  S
C962        C966   1.539       .  S
C962        C968   1.561       .  S
C962        C967   1.543       .  S
C962       C1136   1.502       .  S
C963       C1369   1.553   1_554  S
C963       C1379   1.392       .  A
C963        C966   1.378       .  A
C964       C1369   1.534   1_554  S
C964       C1383   1.381   1_554  A
C964        C967   1.377       .  A
C965       C1369   1.561   1_554  S
C965       C1387   1.403   1_554  A
C965        C968   1.391       .  A
C966        C969   1.390       .  A
C967        C973   1.390       .  A
C968        C976   1.390       .  A
C969        H982   1.082       .  S
C969        N970   1.361       .  A
N970       C1379   1.362       .  A
C971       C1371   1.392       .  A
C971        H972   1.082       .  S
C971       N1378   1.362       .  A
C973        H983   1.082       .  S
C973        N974   1.363       .  A
N974       C1383   1.356   1_554  A
N974       C1196   1.449       .  S
C975       C1372   1.381       .  A
C975        H981   1.082       .  S
C975       N1382   1.356       .  A
C976        H978   1.082       .  S
C976        N977   1.364       .  A
N977       C1387   1.364   1_554  A
N977       C1060   1.460       .  S
C979       C1373   1.403       .  A
C979        H980   1.081       .  S
C979       N1385   1.364       .  A
C984        C986   1.531       .  S
C984        C988   1.538       .  S
C984        C987   1.544       .  S
C984       C1139   1.503       .  S
C985        C989   1.543       .  S
C985        C991   1.540       .  S
C985        C990   1.528       .  S
C985       C1126   1.501       .  S
C986        C994   1.370       .  A
C986        C989   1.387       .  A
C987        C998   1.384       .  A
C987        C990   1.380       .  A
C988       C1002   1.384       .  A
C988        C991   1.389       .  A
C989        C992   1.385       .  A
C990        C996   1.379       .  A
C991        C999   1.370       .  A
C992       H1005   1.081       .  S
C992        N993   1.357       .  A
N993        C994   1.354       .  A
C994        H995   1.083       .  S
C996       H1006   1.083       .  S
C996        N997   1.357       .  A
N997        C998   1.360       .  A
N997       C1186   1.443       .  S
C998       H1004   1.082       .  S
C999       H1001   1.082       .  S
C999       N1000   1.354       .  A
N1000      C1002   1.357       .  A
N1000      C1089   1.429       .  S
C1002      H1003   1.082       .  S
C1007      C1009   1.547       .  S
C1007      C1011   1.552       .  S
C1007      C1010   1.533       .  S
C1007      C1116   1.507       .  S
C1008      C1012   1.519       .  S
C1008      C1014   1.533       .  S
C1008      C1013   1.544       .  S
C1008      C1109   1.509       .  S
C1009      C1017   1.401       .  A
C1009      C1420   1.371       .  A
C1010      C1021   1.366       .  A
C1010      C1421   1.393       .  A
C1011      C1025   1.404       .  A
C1011      C1422   1.407       .  A
C1012      C1417   1.371       .  A
C1012      C1015   1.365       .  A
C1013      C1418   1.393       .  A
C1013      C1019   1.381       .  A
C1014      C1419   1.407       .  A
C1014      C1022   1.373       .  A
C1015      H1028   1.083       .  S
C1015      N1424   1.352       .  A
N1016      C1423   1.352   1_554  A
N1016      C1017   1.366       .  A
N1016      C1067   1.443       .  S
C1017      H1018   1.082       .  S
C1019      H1029   1.081       .  S
C1019      N1428   1.359       .  A
N1020      C1427   1.359   1_554  A
N1020      C1021   1.351       .  A
N1020      C1156   1.430       .  S
C1021      H1027   1.082       .  S
C1022      H1024   1.083       .  S
C1022      N1431   1.343       .  A
N1023      C1430   1.343   1_554  A
N1023      C1025   1.355       .  A
C1025      H1026   1.082       .  S
C1030      C1032   1.538       .  S
C1030      C1034   1.534       .  S
C1030      C1033   1.538       .  S
C1030      C1106   1.504       .  S
C1031      C1035   1.530       .  S
C1031      C1037   1.530       .  S
C1031      C1036   1.545       .  S
C1031      C1119   1.506       .  S
C1032      C1040   1.388       .  A
C1032      C1035   1.395       .  A
C1033      C1044   1.375       .  A
C1033      C1036   1.390       .  A
C1034      C1048   1.382       .  A
C1034      C1037   1.388       .  A
C1035      C1038   1.375       .  A
C1036      C1042   1.384       .  A
C1037      C1045   1.378       .  A
C1038      H1051   1.083       .  S
C1038      N1039   1.349       .  A
N1039      C1040   1.352       .  A
N1039      C1082   1.424       .  S
C1040      H1041   1.082       .  S
C1042      H1052   1.082       .  S
C1042      N1043   1.358       .  A
N1043      C1044   1.351       .  A
N1043      C1149   1.434       .  S
C1044      H1050   1.082       .  S
C1045      H1047   1.083       .  S
C1045      N1046   1.355       .  A
N1046      C1048   1.353       .  A
C1048      H1049   1.082       .  S
O1053     Ni1059   1.938       .  S
O1053      C1074   1.269       .  A
O1054     Ni1077   1.941       .  S
O1054      C1063   1.277       .  A
O1055      H1078   0.967       .  S
O1055     Ni1059   1.913       .  S
O1055     Ni1485   1.931       .  S
O1055     Ni1071   1.911       .  S
C1056      O1481   1.278   1_554  A
C1056      O1065   1.281       .  A
O1057     Ni1076   1.937       .  S
O1057      C1063   1.270       .  A
O1058     Ni1076   1.913       .  S
O1058      C1060   1.269       .  A
Ni1059     O1062   1.919       .  S
Ni1059     O1064   1.913       .  S
C1060      O1478   1.284   1_554  A
O1061     Ni1077   1.937       .  S
O1061      C1067   1.281       .  A
O1062      C1475   1.280       .  A
C1063      C1092   1.494       .  S
O1064      C1474   1.269       .  A
O1065     Ni1076   1.919       .  S
C1066      O1472   1.269       .  A
C1066      O1072   1.280   1_556  A
C1067      O1470   1.280   1_554  A
H1068      O1069   0.966       .  S
O1069     Ni1077   1.914       .  S
O1069     Ni1479   1.929   1_554  S
O1069     Ni1076   1.910       .  S
O1070     Ni1071   1.978       .  S
O1070      C1468   1.284       .  A
Ni1071     O1075   1.937       .  S
Ni1071     O1073   1.935       .  S
Ni1071     O1477   1.929       .  S
O1072     Ni1077   1.972       .  S
O1073      C1464   1.278       .  A
C1074      O1075   1.275       .  A
C1074      C1086   1.491       .  S
Ni1077     O1463   1.931   1_554  S
O1079     Ni1085   1.903       .  S
O1079      C1100   1.264       .  A
O1080     Ni1103   1.924       .  S
O1080      C1089   1.269       .  A
O1081      H1104   0.967       .  S
O1081     Ni1085   1.898       .  S
O1081     Ni1103   1.893       .  S
O1081     Ni1097   1.920       .  S
C1082      O1099   1.279       .  A
C1082      O1091   1.282       .  A
O1083     Ni1102   1.905       .  S
O1083      C1089   1.264       .  A
O1084     Ni1102   1.907       .  S
O1084      C1086   1.263       .  A
Ni1085     O1088   1.925       .  S
Ni1085     O1090   1.909       .  S
C1086      O1096   1.278       .  A
O1087     Ni1103   1.921       .  S
O1087      C1093   1.282       .  A
O1088      C1093   1.282       .  A
O1090      C1092   1.264       .  A
O1091     Ni1102   1.928       .  S
C1092      O1098   1.279       .  A
H1094      O1095   0.965       .  S
O1095     Ni1103   1.927       .  S
O1095     Ni1097   1.897       .  S
O1095     Ni1102   1.898       .  S
O1096     Ni1097   1.959       .  S
Ni1097     O1101   1.916       .  S
Ni1097     O1099   1.917       .  S
O1098     Ni1103   1.963       .  S
C1100      O1101   1.266       .  A
C1105      C1106   1.408       .  A
C1105      C1110   1.387       .  A
C1105      H1112   1.083       .  S
C1106      C1107   1.409       .  A
C1107      C1108   1.382       .  A
C1107     Br1114   1.925       .  S
C1108      C1109   1.410       .  A
C1108      H1113   1.084       .  S
C1109      C1110   1.407       .  A
C1110     Br1111   1.917       .  S
C1115      C1116   1.403       .  A
C1115      C1120   1.388       .  A
C1115      H1122   1.081       .  S
C1116      C1117   1.415       .  A
C1117      C1118   1.388       .  A
C1117     Br1124   1.927       .  S
C1118      C1119   1.403       .  A
C1118      H1123   1.080       .  S
C1119      C1120   1.413       .  A
C1120     Br1121   1.924       .  S
C1125      C1126   1.397       .  A
C1125      C1130   1.385       .  A
C1125      H1132   1.080       .  S
C1126      C1127   1.413       .  A
C1127      C1128   1.386       .  A
C1127     Br1134   1.927       .  S
C1128      C1129   1.401       .  A
C1128      H1133   1.078       .  S
C1129      C1130   1.419       .  A
C1130     Br1131   1.930       .  S
C1135      C1136   1.405       .  A
C1135      C1140   1.387       .  A
C1135      H1142   1.082       .  S
C1136      C1137   1.415       .  A
C1137      C1138   1.387       .  A
C1137     Br1144   1.926       .  S
C1138      C1139   1.404       .  A
C1138      H1143   1.082       .  S
C1139      C1140   1.408       .  A
C1140     Br1141   1.923       .  S
C1145      H1152   1.083       .  S
C1146      C1147   1.411       .  A
C1147      C1148   1.395       .  A
C1147     Br1154   1.919       .  S
C1148      C1149   1.400       .  A
C1148      H1153   1.083       .  S
C1149      C1150   1.409       .  A
C1150     Br1151   1.918       .  S
C1155      C1156   1.402       .  A
C1155      C1160   1.389       .  A
C1155      H1162   1.082       .  S
C1156      C1157   1.406   1_554  A
C1157     Br1164   1.916       .  S
C1158      H1163   1.083       .  S
C1159      C1160   1.410       .  A
C1160     Br1161   1.923       .  S
C1165      C1166   1.399       .  A
C1165      C1170   1.386       .  A
C1165      H1172   1.082       .  S
C1166      C1167   1.415       .  A
C1167      C1168   1.389       .  A
C1167     Br1174   1.926       .  S
C1168      C1169   1.402       .  A
C1168      H1173   1.084       .  S
C1169      C1170   1.420       .  A
C1170     Br1171   1.928       .  S
C1175      C1176   1.405       .  A
C1175      C1180   1.384       .  A
C1175      H1182   1.081       .  S
C1176      C1177   1.415       .  A
C1177      C1178   1.382       .  A
C1177     Br1184   1.931       .  S
C1178      C1179   1.403       .  A
C1178      H1183   1.082       .  S
C1179      C1180   1.410       .  A
C1180     Br1181   1.925       .  S
C1185      C1186   1.404       .  A
C1185      C1190   1.403       .  A
C1185      H1192   1.083       .  S
C1186      C1187   1.412       .  A
C1187      C1188   1.402       .  A
C1187     Br1194   1.920       .  S
C1188      C1189   1.405       .  A
C1188      H2825   1.083   1_455  S
C1189      C1190   1.413       .  A
C1189      N2485   1.444   1_455  S
C1190     Br1191   1.919       .  S
H1193      C2820   1.083       .  S
C1195      C1196   1.404       .  A
C1195      C1200   1.403       .  A
C1195      H1202   1.083       .  S
C1196      C1605   1.418   1_554  A
C1197      C1604   1.418       .  A
C1197      C1198   1.403   1_455  A
C1197     Br1204   1.916       .  S
C1198      C1607   1.402   1_655  A
C1198      H2835   1.083       .  S
C1199      C1606   1.402   1_454  A
C1199      C1200   1.414       .  A
C1199      N2462   1.447   1_455  S
C1200     Br1201   1.916       .  S
H1203      C2830   1.083       .  S
C1205      C1206   1.403       .  A
C1205      C1210   1.388       .  A
C1205      H1212   1.083       .  S
C1206      C1207   1.413       .  A
C1207      C1208   1.385       .  A
C1207     Br1214   1.927       .  S
C1208      C1209   1.403       .  A
C1208      H1213   1.082       .  S
C1209      C1210   1.413       .  A
C1210     Br1211   1.925       .  S
C1215      C1216   1.400       .  A
C1215      C1220   1.387       .  A
C1215      H1222   1.079       .  S
C1216      C1217   1.425       .  A
C1217      C1218   1.386       .  A
C1217     Br1224   1.931       .  S
C1218      C1219   1.394       .  A
C1218      H1223   1.079       .  S
C1219      C1220   1.414       .  A
C1220     Br1221   1.927       .  S
C1225      C1227   1.536       .  S
C1225      C1229   1.556       .  S
C1225      C1228   1.537       .  S
C1225      C1614   1.500       .  S
C1226      C1230   1.551       .  S
C1226      C1232   1.565       .  S
C1226      C1231   1.534       .  S
C1226      C1624   1.503       .  S
C1227      C1235   1.387       .  A
C1228      C1239   1.387       .  A
C1229      C1243   1.384       .  A
C1230      C1233   1.389       .  A
C1231      C1237   1.381       .  A
C1232      C1240   1.404       .  A
C1233      H1246   1.082       .  S
N1234      C1235   1.359       .  A
N1234      C1331   1.443       .  S
C1235      H1236   1.082       .  S
C1237      H1247   1.082       .  S
C1237      N1238   1.357       .  A
N1238      C3239   1.447       .  S
C1239      H1245   1.082       .  S
C1240      H1242   1.081       .  S
C1240      N1241   1.367       .  A
N1241      C1474   1.458       .  S
C1243      H1244   1.082       .  S
C1248      C1250   1.545       .  S
C1248      C1252   1.537       .  S
C1248      C1251   1.529       .  S
C1248      C1627   1.501       .  S
C1249      C1253   1.531       .  S
C1249      C1255   1.536       .  S
C1249      C1254   1.548       .  S
C1249      C1617   1.502       .  S
C1250      C1258   1.386       .  A
C1250      C1253   1.388       .  A
C1251      C1262   1.379       .  A
C1251      C1254   1.382       .  A
C1252      C1266   1.370       .  A
C1252      C1255   1.386       .  A
C1253      C1256   1.370       .  A
C1254      C1260   1.386       .  A
C1255      C1263   1.383       .  A
C1256      H1269   1.083       .  S
C1256      N1257   1.353       .  A
N1257      C1258   1.357       .  A
N1257      C1357   1.424       .  S
C1258      H1259   1.080       .  S
C1260      H1270   1.081       .  S
C1260      N1261   1.361       .  A
N1261      C1262   1.357       .  A
N1261      C3229   1.444       .  S
C1262      H1268   1.083       .  S
C1263      H1265   1.083       .  S
C1263      N1264   1.357       .  A
N1264      C1266   1.352       .  A
N1264      C1508   1.427       .  S
C1266      H1267   1.082       .  S
C1271      C1273   1.518       .  S
C1271      C1275   1.510       .  S
C1271      C1274   1.539       .  S
C1271      C1587   1.502       .  S
C1272      C1276   1.564       .  S
C1272      C1278   1.548       .  S
C1272      C1277   1.522       .  S
C1272      C1577   1.505       .  S
C1273      C1281   1.363       .  A
C1274      C1285   1.379       .  A
C1275      C1289   1.369       .  A
C1276      C1279   1.409       .  A
C1277      C1283   1.372       .  A
C1278      C1286   1.398       .  A
C1279      H1292   1.082       .  S
N1280      C1281   1.344       .  A
N1280      C1464   1.442       .  S
C1281      H1282   1.083       .  S
C1283      H1293   1.083       .  S
N1284      C1285   1.350       .  A
C1285      H1291   1.082       .  S
C1286      H1288   1.082       .  S
N1287      C1289   1.343       .  A
N1287      C1327   1.435       .  S
C1289      H1290   1.083       .  S
C1294      C1296   1.537       .  S
C1294      C1298   1.525       .  S
C1294      C1297   1.543       .  S
C1294      C1574   1.506       .  S
C1295      C1299   1.543       .  S
C1295      C1301   1.525       .  S
C1295      C1300   1.540       .  S
C1295      C1584   1.500       .  S
C1296      C1304   1.379       .  A
C1296      C1299   1.406       .  A
C1297      C1308   1.380       .  A
C1297      C1300   1.389       .  A
C1298      C1312   1.378       .  A
C1298      C1301   1.379       .  A
C1299      C1302   1.389       .  A
C1300      C1306   1.378       .  A
C1301      C1309   1.379       .  A
C1302      H1315   1.082       .  S
C1302      N1303   1.347       .  A
N1303      C1304   1.347       .  A
N1303      C1501   1.424       .  S
C1304      H1305   1.083       .  S
C1306      H1316   1.082       .  S
C1306      N1307   1.355       .  A
N1307      C1308   1.358       .  A
C1308      H1314   1.082       .  S
C1309      H1311   1.082       .  S
C1309      N1310   1.351       .  A
N1310      C1312   1.355       .  A
N1310      C1353   1.429       .  S
C1312      H1313   1.083       .  S
O1317     Ni1323   1.911       .  S
O1319      H1342   0.967       .  S
O1319     Ni2973   1.894   1_455  S
O1319     Ni1335   1.957       .  S
C1320      N1378   1.447       .  S
C1320      O1337   1.293       .  A
C1320      O1329   1.282       .  A
O1321     Ni2972   1.912       .  S
O1321      C1327   1.275       .  A
O1322     Ni1340   1.957       .  S
Ni1323     O1326   1.929   1_455  S
Ni1323     O1328   1.955       .  S
C1324      O1334   1.301       .  A
C1324      C1356   1.569       .  S
O1325      C1331   1.286       .  A
O1326      C2963   1.282       .  A
O1328      C1330   1.272       .  A
O1329     Ni1340   1.926       .  S
C1330      O1336   1.299       .  A
C1330      C1350   1.563       .  S
C1331      O2958   1.282       .  A
O1333     Ni2157   1.952   1_465  S
O1333     Ni1340   1.909       .  S
O1334     Ni1335   2.029       .  S
Ni1335     O1339   1.935       .  S
O1336     Ni2565   2.021   1_455  S
C1338      N1431   1.439       .  S
C1338      O1339   1.278       .  A
Ni1340     O2953   1.912   1_455  S
Ni1341     O2560   2.021       .  S
Ni1341     O2951   1.894       .  S
Ni1341     O2149   1.949       .  S
O1343     Ni1349   1.916       .  S
O1343      C1364   1.273       .  A
O1344     Ni1367   1.913       .  S
O1345      H1368   0.967       .  S
O1345     Ni1349   1.903       .  S
O1345     Ni2999   1.891   1_455  S
O1345     Ni1361   1.933       .  S
C1346      N1401   1.423       .  S
C1346      O1363   1.283       .  A
C1346      O1355   1.279       .  A
O1347     Ni2998   1.906       .  S
O1347      C1353   1.270       .  A
O1348     Ni1366   1.939   1_545  S
Ni1349     O1352   1.915       .  S
Ni1349     O1354   1.944       .  S
C1350      O1360   1.303       .  A
O1351     Ni1367   1.929       .  S
O1351      C1357   1.283       .  A
O1352      C2989   1.280   1_455  A
O1354      C1356   1.271       .  A
O1355     Ni1366   1.912       .  S
C1356      O1362   1.304       .  A
C1357      O2984   1.280       .  A
H1358      O1359   0.967       .  S
O1359     Ni2183   1.936   1_465  S
O1359     Ni1366   1.907       .  S
O1360     Ni1361   2.039       .  S
Ni1361     O1365   1.917       .  S
O1362     Ni2999   2.040   1_455  S
C1364      N1454   1.431       .  S
C1364      O1365   1.277       .  A
Ni1366     O2979   1.906   1_455  S
Ni1367     O2994   2.040       .  S
Ni1367     O2977   1.891       .  S
Ni1367     O2175   1.935       .  S
C1369      C1537   1.500       .  S
C1370      C1374   1.539       .  S
C1370      C1376   1.561       .  S
C1370      C1375   1.543       .  S
C1370      C1544   1.502       .  S
C1371      C1374   1.378       .  A
C1372      C1375   1.377       .  A
C1373      C1376   1.391       .  A
C1374      C1377   1.390       .  A
C1375      C1381   1.390       .  A
C1376      C1384   1.390       .  A
C1377      H1390   1.082       .  S
C1377      N1378   1.361       .  A
C1379      H1380   1.082   1_554  S
C1381      H1391   1.082       .  S
C1381      N1382   1.363       .  A
N1382      C1604   1.449       .  S
C1383      H1389   1.082       .  S
C1384      H1386   1.082       .  S
C1384      N1385   1.364       .  A
N1385      C1468   1.460       .  S
C1387      H1388   1.081       .  S
C1392      C1394   1.531       .  S
C1392      C1396   1.538       .  S
C1392      C1395   1.544       .  S
C1392      C1547   1.503       .  S
C1393      C1397   1.543       .  S
C1393      C1399   1.540       .  S
C1393      C1398   1.528       .  S
C1393      C1534   1.501       .  S
C1394      C1402   1.370       .  A
C1394      C1397   1.387       .  A
C1395      C1406   1.384       .  A
C1395      C1398   1.380       .  A
C1396      C1410   1.384       .  A
C1396      C1399   1.389       .  A
C1397      C1400   1.385       .  A
C1398      C1404   1.379       .  A
C1399      C1407   1.370       .  A
C1400      H1413   1.081       .  S
C1400      N1401   1.357       .  A
N1401      C1402   1.354       .  A
C1402      H1403   1.083       .  S
C1404      H1414   1.083       .  S
C1404      N1405   1.357       .  A
N1405      C1406   1.360       .  A
N1405      C1594   1.443       .  S
C1406      H1412   1.082       .  S
C1407      H1409   1.082       .  S
C1407      N1408   1.354       .  A
N1408      C1410   1.357       .  A
N1408      C1497   1.429       .  S
C1410      H1411   1.082       .  S
C1415      C1417   1.547       .  S
C1415      C1419   1.552       .  S
C1415      C1418   1.533       .  S
C1415      C1524   1.507       .  S
C1416      C1420   1.519   1_556  S
C1416      C1422   1.533   1_556  S
C1416      C1421   1.544   1_556  S
C1416      C1517   1.509       .  S
C1417      C1425   1.401       .  A
C1418      C1429   1.366       .  A
C1419      C1433   1.404       .  A
C1420      C1423   1.365   1_554  A
C1421      C1427   1.381   1_554  A
C1422      C1430   1.373   1_554  A
C1423      H1436   1.083       .  S
N1424      C1425   1.366       .  A
N1424      C1475   1.443       .  S
C1425      H1426   1.082       .  S
C1427      H1437   1.081       .  S
N1428      C1429   1.351       .  A
N1428      C1564   1.430       .  S
C1429      H1435   1.082       .  S
C1430      H1432   1.083       .  S
N1431      C1433   1.355       .  A
C1433      H1434   1.082       .  S
C1438      C1440   1.538       .  S
C1438      C1442   1.534       .  S
C1438      C1441   1.538       .  S
C1438      C1514   1.504       .  S
C1439      C1443   1.530       .  S
C1439      C1445   1.530       .  S
C1439      C1444   1.545       .  S
C1439      C1527   1.506       .  S
C1440      C1448   1.388       .  A
C1440      C1443   1.395       .  A
C1441      C1452   1.375       .  A
C1441      C1444   1.390       .  A
C1442      C1456   1.382       .  A
C1442      C1445   1.388       .  A
C1443      C1446   1.375       .  A
C1444      C1450   1.384       .  A
C1445      C1453   1.378       .  A
C1446      H1459   1.083       .  S
C1446      N1447   1.349       .  A
N1447      C1448   1.352       .  A
N1447      C1490   1.424       .  S
C1448      H1449   1.082       .  S
C1450      H1460   1.082       .  S
C1450      N1451   1.358       .  A
N1451      C1452   1.351       .  A
N1451      C1557   1.434       .  S
C1452      H1458   1.082       .  S
C1453      H1455   1.083       .  S
C1453      N1454   1.355       .  A
N1454      C1456   1.353       .  A
C1456      H1457   1.082       .  S
O1461     Ni1467   1.938       .  S
O1461      C1482   1.269       .  A
O1462     Ni1485   1.941       .  S
O1462      C1471   1.277       .  A
O1463      H1486   0.967       .  S
O1463     Ni1467   1.913       .  S
O1463     Ni1479   1.911       .  S
C1464      O1473   1.281       .  A
O1465     Ni1484   1.937       .  S
O1465      C1471   1.270       .  A
O1466     Ni1484   1.913       .  S
O1466      C1468   1.269       .  A
Ni1467     O1470   1.919       .  S
Ni1467     O1472   1.913       .  S
O1469     Ni1485   1.937       .  S
O1469      C1475   1.281       .  A
C1471      C1500   1.494       .  S
O1473     Ni1484   1.919       .  S
C1474      O1480   1.280       .  A
H1476      O1477   0.966       .  S
O1477     Ni1485   1.914       .  S
O1477     Ni1484   1.910       .  S
O1478     Ni1479   1.978       .  S
Ni1479     O1483   1.937       .  S
Ni1479     O1481   1.935       .  S
O1480     Ni1485   1.972       .  S
C1482      O1483   1.275       .  A
C1482      C1494   1.491       .  S
O1487     Ni1493   1.903       .  S
O1487      C1508   1.264       .  A
O1488     Ni1511   1.924       .  S
O1488      C1497   1.269       .  A
O1489      H1512   0.967       .  S
O1489     Ni1493   1.898       .  S
O1489     Ni1511   1.893       .  S
O1489     Ni1505   1.920       .  S
C1490      O1507   1.279       .  A
C1490      O1499   1.282       .  A
O1491     Ni1510   1.905       .  S
O1491      C1497   1.264       .  A
O1492     Ni1510   1.907       .  S
O1492      C1494   1.263       .  A
Ni1493     O1496   1.925       .  S
Ni1493     O1498   1.909       .  S
C1494      O1504   1.278       .  A
O1495     Ni1511   1.921       .  S
O1495      C1501   1.282       .  A
O1496      C1501   1.282       .  A
O1498      C1500   1.264       .  A
O1499     Ni1510   1.928       .  S
C1500      O1506   1.279       .  A
H1502      O1503   0.965       .  S
O1503     Ni1511   1.927       .  S
O1503     Ni1505   1.897       .  S
O1503     Ni1510   1.898       .  S
O1504     Ni1505   1.959       .  S
Ni1505     O1509   1.916       .  S
Ni1505     O1507   1.917       .  S
O1506     Ni1511   1.963       .  S
C1508      O1509   1.266       .  A
C1513      C1514   1.408       .  A
C1513      C1518   1.387       .  A
C1513      H1520   1.083       .  S
C1514      C1515   1.409       .  A
C1515      C1516   1.382       .  A
C1515     Br1522   1.925       .  S
C1516      C1517   1.410       .  A
C1516      H1521   1.084       .  S
C1517      C1518   1.407       .  A
C1518     Br1519   1.917       .  S
C1523      C1524   1.403       .  A
C1523      C1528   1.388       .  A
C1523      H1530   1.081       .  S
C1524      C1525   1.415       .  A
C1525      C1526   1.388       .  A
C1525     Br1532   1.927       .  S
C1526      C1527   1.403       .  A
C1526      H1531   1.080       .  S
C1527      C1528   1.413       .  A
C1528     Br1529   1.924       .  S
C1533      C1534   1.397       .  A
C1533      C1538   1.385       .  A
C1533      H1540   1.080       .  S
C1534      C1535   1.413       .  A
C1535      C1536   1.386       .  A
C1535     Br1542   1.927       .  S
C1536      C1537   1.401       .  A
C1536      H1541   1.078       .  S
C1537      C1538   1.419       .  A
C1538     Br1539   1.930       .  S
C1543      C1544   1.405       .  A
C1543      C1548   1.387       .  A
C1543      H1550   1.082       .  S
C1544      C1545   1.415       .  A
C1545      C1546   1.387       .  A
C1545     Br1552   1.926       .  S
C1546      C1547   1.404       .  A
C1546      H1551   1.082       .  S
C1547      C1548   1.408       .  A
C1548     Br1549   1.923       .  S
C1553      H1560   1.083       .  S
C1554      C1555   1.411       .  A
C1555      C1556   1.395       .  A
C1555     Br1562   1.919       .  S
C1556      C1557   1.400       .  A
C1556      H1561   1.083       .  S
C1557      C1558   1.409       .  A
C1558     Br1559   1.918       .  S
C1563      C1564   1.402       .  A
C1563      C1568   1.389       .  A
C1563      H1570   1.082       .  S
C1564      C1565   1.406       .  A
C1565     Br1572   1.916       .  S
C1566      H1571   1.083       .  S
C1567      C1568   1.410       .  A
C1568     Br1569   1.923       .  S
C1573      C1574   1.399       .  A
C1573      C1578   1.386       .  A
C1573      H1580   1.082       .  S
C1574      C1575   1.415       .  A
C1575      C1576   1.389       .  A
C1575     Br1582   1.926       .  S
C1576      C1577   1.402       .  A
C1576      H1581   1.084       .  S
C1577      C1578   1.420       .  A
C1578     Br1579   1.928       .  S
C1583      C1584   1.405       .  A
C1583      C1588   1.384       .  A
C1583      H1590   1.081       .  S
C1584      C1585   1.415       .  A
C1585      C1586   1.382       .  A
C1585     Br1592   1.931       .  S
C1586      C1587   1.403       .  A
C1586      H1591   1.082       .  S
C1587      C1588   1.410       .  A
C1588     Br1589   1.925       .  S
C1593      C1594   1.404       .  A
C1593      C1598   1.403       .  A
C1593      H1600   1.083       .  S
C1594      C1595   1.412       .  A
C1595      C1596   1.402       .  A
C1595     Br1602   1.920       .  S
C1596      C1597   1.405       .  A
C1596      H3233   1.083   1_455  S
C1597      C1598   1.413       .  A
C1597      N2893   1.444   1_455  S
C1598     Br1599   1.919       .  S
H1601      C3228   1.083       .  S
C1603      C1604   1.404       .  A
C1603      C1608   1.403       .  A
C1603      H1610   1.083       .  S
C1605      C1606   1.403   1_455  A
C1605     Br1612   1.916       .  S
C1606      H3243   1.083       .  S
C1607      C1608   1.414       .  A
C1607      N2870   1.447   1_455  S
C1608     Br1609   1.916       .  S
H1611      C3238   1.083       .  S
C1613      C1614   1.403       .  A
C1613      C1618   1.388       .  A
C1613      H1620   1.083       .  S
C1614      C1615   1.413       .  A
C1615      C1616   1.385       .  A
C1615     Br1622   1.927       .  S
C1616      C1617   1.403       .  A
C1616      H1621   1.082       .  S
C1617      C1618   1.413       .  A
C1618     Br1619   1.925       .  S
C1623      C1624   1.400       .  A
C1623      C1628   1.387       .  A
C1623      H1630   1.079       .  S
C1624      C1625   1.425       .  A
C1625      C1626   1.386       .  A
C1625     Br1632   1.931       .  S
C1626      C1627   1.394       .  A
C1626      H1631   1.079       .  S
C1627      C1628   1.414       .  A
C1628     Br1629   1.927       .  S
C1633      C1635   1.536       .  S
C1633      C1637   1.557       .  S
C1633      C1636   1.540       .  S
C1633      C2022   1.500       .  S
C1634      C1638   1.551       .  S
C1634      C1640   1.565       .  S
C1634      C1639   1.533       .  S
C1634      C2032   1.503       .  S
C1635      C1643   1.388       .  A
C1635      C2046   1.379       .  A
C1636      C1647   1.390       .  A
C1636      C2047   1.378       .  A
C1637      C1651   1.385       .  A
C1637      C2048   1.394       .  A
C1638      C2043   1.379   1_554  A
C1638      C1641   1.390       .  A
C1639      C2044   1.378   1_554  A
C1639      C1645   1.380       .  A
C1640      C2045   1.394   1_554  A
C1640      C1648   1.404       .  A
C1641      H1654   1.082       .  S
C1641      N2050   1.360   1_554  A
N1642      C2049   1.360       .  A
N1642      C1643   1.359       .  A
N1642      C1739   1.444       .  S
C1643      H1644   1.082       .  S
C1645      H1655   1.082       .  S
C1645      N1646   1.354   1_554  A
N1646      C2055   1.359       .  A
C1647      H1653   1.082       .  S
C1647      N2054   1.359       .  A
C1648      H1650   1.081       .  S
C1648      N1649   1.366   1_554  A
N1649      C2059   1.361       .  A
N1649      C1882   1.459       .  S
C1651      H1652   1.082       .  S
C1651      N2057   1.361       .  A
C1656      C1658   1.545       .  S
C1656      C1660   1.538       .  S
C1656      C1659   1.528       .  S
C1656      C2035   1.503       .  S
C1657      C1661   1.531       .  S
C1657      C1663   1.537       .  S
C1657      C1662   1.548       .  S
C1657      C2025   1.503       .  S
C1658      C1666   1.386       .  A
C1658      C1661   1.389       .  A
C1659      C1670   1.377       .  A
C1659      C1662   1.382       .  A
C1660      C1674   1.371       .  A
C1660      C1663   1.386       .  A
C1661      C1664   1.370       .  A
C1662      C1668   1.386       .  A
C1663      C1671   1.384       .  A
C1664      H1677   1.083       .  S
C1664      N1665   1.353       .  A
N1665      C1666   1.359       .  A
N1665      C1765   1.425       .  S
C1666      H1667   1.080       .  S
C1668      H1678   1.081       .  S
C1668      N1669   1.362       .  A
N1669      C1670   1.356       .  A
C1670      H1676   1.083       .  S
C1671      H1673   1.082       .  S
C1671      N1672   1.357       .  A
N1672      C1674   1.353       .  A
N1672      C1916   1.428       .  S
C1674      H1675   1.082       .  S
C1679      C1681   1.516       .  S
C1679      C1683   1.509       .  S
C1679      C1682   1.539       .  S
C1679      C1995   1.502       .  S
C1680      C1684   1.563       .  S
C1680      C1686   1.547       .  S
C1680      C1685   1.522       .  S
C1680      C1985   1.505       .  S
C1681      C1689   1.361       .  A
C1681      C2092   1.401   1_554  A
C1682      C1693   1.379       .  A
C1682      C2093   1.394   1_554  A
C1683      C1697   1.368       .  A
C1683      C2094   1.394   1_554  A
C1684      C2089   1.401       .  A
C1684      C1687   1.408       .  A
C1685      C2090   1.394       .  A
C1685      C1691   1.373       .  A
C1686      C2091   1.394       .  A
C1686      C1694   1.397       .  A
C1687      H1700   1.082       .  S
C1687      N2096   1.363       .  A
N1688      C2095   1.363       .  A
N1688      C1689   1.343   1_556  A
N1688      C1872   1.441   1_556  S
C1689      H1690   1.083       .  S
C1691      H1701   1.083       .  S
C1691      N2100   1.347       .  A
N1692      C2099   1.347   1_554  A
N1692      C1693   1.349       .  A
N1692      C2791   1.428       .  S
C1693      H1699   1.082       .  S
C1694      H1696   1.082       .  S
C1694      N2103   1.357       .  A
N1695      C2102   1.357   1_554  A
N1695      C1697   1.342       .  A
N1695      C1735   1.433       .  S
C1697      H1698   1.083       .  S
C1702      C1704   1.535       .  S
C1702      C1706   1.524       .  S
C1702      C1705   1.543       .  S
C1702      C1982   1.506       .  S
C1703      C1707   1.543       .  S
C1703      C1709   1.524       .  S
C1703      C1708   1.539       .  S
C1703      C1992   1.500       .  S
C1704      C1712   1.378       .  A
C1704      C1707   1.407       .  A
C1705      C1716   1.380       .  A
C1705      C1708   1.389       .  A
C1706      C1720   1.377       .  A
C1706      C1709   1.379       .  A
C1707      C1710   1.389       .  A
C1708      C1714   1.377       .  A
C1709      C1717   1.378       .  A
C1710      H1723   1.082       .  S
C1710      N1711   1.347       .  A
N1711      C1712   1.346       .  A
N1711      C1909   1.422       .  S
C1712      H1713   1.083       .  S
C1714      H1724   1.082       .  S
C1714      N1715   1.354       .  A
N1715      C1716   1.358       .  A
N1715      C2778   1.435       .  S
C1716      H1722   1.082       .  S
C1717      H1719   1.082       .  S
C1717      N1718   1.351       .  A
N1718      C1720   1.355       .  A
N1718      C1761   1.428       .  S
C1720      H1721   1.083       .  S
O1725     Ni1731   1.910       .  S
O1725      C2154   1.274       .  A
O1726     Ni2157   1.921   1_565  S
O1726      C2959   1.273       .  A
O1727      H1750   0.967       .  S
O1727     Ni2139   1.910   1_554  S
O1727     Ni1743   1.956       .  S
C1728      N1786   1.446       .  S
C1728      O1745   1.294       .  A
C1728      O1737   1.281       .  A
O1729      C1735   1.275       .  A
O1730     Ni1748   1.958       .  S
O1730      C2548   1.274       .  A
Ni1731     O1734   1.928       .  S
Ni1731     O1736   1.955       .  S
Ni1731     O2135   1.910       .  S
C1732      O2546   1.274   1_545  A
C1732      O1742   1.300       .  A
C1732      C1764   1.567       .  S
O1733     Ni2157   1.956       .  S
O1733      C1739   1.288       .  A
C1735      O2950   1.271   1_554  A
O1736      C1738   1.273       .  A
O1737     Ni1748   1.923       .  S
C1738      O1744   1.299       .  A
C1738      C1758   1.565       .  S
H1740      O2149   0.967       .  S
O1741      H2148   0.967   1_554  S
O1741     Ni2559   1.891       .  S
O1741     Ni1748   1.908       .  S
O1742     Ni1743   2.027       .  S
Ni1743     O1747   1.932       .  S
Ni1743     O2561   1.965   1_545  S
Ni1743     O2557   1.892   1_545  S
O1745     Ni2559   1.967       .  S
C1746      N1839   1.437       .  S
C1746      O2133   1.274   1_554  A
C1746      O1747   1.277       .  A
Ni1749     O2134   1.921   1_545  S
Ni1749     O2141   1.956       .  S
O1751     Ni1757   1.916       .  S
O1751      C1772   1.273       .  A
O1752     Ni1775   1.915       .  S
O1752      C2577   1.277   1_545  A
O1753      H1776   0.967       .  S
O1753     Ni1757   1.905       .  S
O1753     Ni1769   1.935       .  S
C1754      N1809   1.422       .  S
C1754      O1771   1.283       .  A
C1754      O1763   1.279       .  A
O1755      C1761   1.270       .  A
O1756     Ni1774   1.937       .  S
O1756      C2574   1.270       .  A
Ni1757     O1760   1.915       .  S
Ni1757     O1762   1.942       .  S
C1758      O2572   1.270       .  A
C1758      O1768   1.304       .  A
O1759     Ni1775   1.931       .  S
O1759      C1765   1.283       .  A
C1761      O2568   1.276       .  A
O1762      C1764   1.271       .  A
O1763     Ni1774   1.911       .  S
C1764      O1770   1.304       .  A
H1766      O1767   0.967       .  S
O1767     Ni2585   1.889       .  S
O1767     Ni1774   1.907       .  S
O1768     Ni1769   2.039       .  S
Ni1769     O1773   1.915       .  S
Ni1769     O2587   1.929   1_545  S
Ni1769     O2583   1.888   1_545  S
O1771     Ni2585   1.928       .  S
C1772      N1862   1.431       .  S
C1772      O1773   1.277       .  A
C1777      C2187   1.553       .  S
C1777      C2189   1.562       .  S
C1777      C2188   1.533       .  S
C1777      C1945   1.502       .  S
C1778      C1782   1.539       .  S
C1778      C1784   1.558       .  S
C1778      C1783   1.544       .  S
C1778      C1952   1.503       .  S
C1779      C2185   1.553   1_554  S
C1779      C2195   1.392       .  A
C1779      C1782   1.378       .  A
C1780      C2185   1.533   1_554  S
C1780      C2199   1.381   1_554  A
C1780      C1783   1.380       .  A
C1781      C2185   1.562   1_554  S
C1781      C2203   1.402   1_554  A
C1781      C1784   1.393       .  A
C1782      C1785   1.389       .  A
C1783      C1789   1.392       .  A
C1784      C1792   1.387       .  A
C1785      H1798   1.082       .  S
C1785      N1786   1.361       .  A
N1786      C2195   1.363       .  A
C1787      C2187   1.392       .  A
C1787      H1788   1.082       .  S
C1787      N2194   1.363       .  A
C1789      H1799   1.082       .  S
C1789      N1790   1.360       .  A
N1790      C2199   1.353   1_554  A
N1790      C2012   1.440       .  S
C1791      C2188   1.381       .  A
C1791      H1797   1.083       .  S
C1791      N2198   1.353       .  A
C1792      H1794   1.082       .  S
C1792      N1793   1.363       .  A
N1793      C2203   1.364   1_554  A
N1793      C1876   1.457       .  S
C1795      C2189   1.402       .  A
C1795      H1796   1.081       .  S
C1795      N2201   1.364       .  A
C1800      C1802   1.529       .  S
C1800      C1804   1.536       .  S
C1800      C1803   1.545       .  S
C1800      C1955   1.503       .  S
C1801      C1805   1.542       .  S
C1801      C1807   1.541       .  S
C1801      C1806   1.528       .  S
C1801      C1942   1.503       .  S
C1802      C1810   1.369       .  A
C1802      C1805   1.388       .  A
C1803      C1814   1.384       .  A
C1803      C1806   1.381       .  A
C1804      C1818   1.383       .  A
C1804      C1807   1.390       .  A
C1805      C1808   1.385       .  A
C1806      C1812   1.378       .  A
C1807      C1815   1.370       .  A
C1808      H1821   1.081       .  S
C1808      N1809   1.357       .  A
N1809      C1810   1.353       .  A
C1810      H1811   1.083       .  S
C1812      H1822   1.083       .  S
C1812      N1813   1.357       .  A
N1813      C1814   1.360       .  A
N1813      C2002   1.443       .  S
C1814      H1820   1.082       .  S
C1815      H1817   1.082       .  S
C1815      N1816   1.355       .  A
N1816      C1818   1.357       .  A
N1816      C1905   1.429       .  S
C1818      H1819   1.082       .  S
C1823      C1825   1.547       .  S
C1823      C1827   1.552       .  S
C1823      C1826   1.533       .  S
C1823      C1932   1.507       .  S
C1824      C1828   1.518       .  S
C1824      C1830   1.532       .  S
C1824      C1829   1.544       .  S
C1824      C1925   1.509       .  S
C1825      C1833   1.401       .  A
C1825      C2236   1.371       .  A
C1826      C1837   1.366       .  A
C1826      C2237   1.394       .  A
C1827      C1841   1.404       .  A
C1827      C2238   1.408       .  A
C1828      C2233   1.371       .  A
C1828      C1831   1.364       .  A
C1829      C2234   1.394       .  A
C1829      C1835   1.380       .  A
C1830      C2235   1.408       .  A
C1830      C1838   1.372       .  A
C1831      H1844   1.083       .  S
C1831      N2240   1.351       .  A
N1832      C2239   1.351   1_554  A
N1832      C1833   1.366       .  A
N1832      C1883   1.442       .  S
C1833      H1834   1.082       .  S
C1835      H1845   1.081       .  S
C1835      N2244   1.359       .  A
N1836      C2243   1.359   1_554  A
N1836      C1837   1.352       .  A
N1836      C1972   1.430       .  S
C1837      H1843   1.082       .  S
C1838      H1840   1.083       .  S
C1838      N2247   1.343       .  A
N1839      C2246   1.343   1_554  A
N1839      C1841   1.355       .  A
C1841      H1842   1.082       .  S
C1846      C1848   1.538       .  S
C1846      C1850   1.533       .  S
C1846      C1849   1.540       .  S
C1846      C1922   1.504       .  S
C1847      C1851   1.531       .  S
C1847      C1853   1.527       .  S
C1847      C1852   1.545       .  S
C1847      C1935   1.506       .  S
C1848      C1856   1.389       .  A
C1848      C1851   1.398       .  A
C1849      C1860   1.376       .  A
C1849      C1852   1.391       .  A
C1850      C1864   1.381       .  A
C1850      C1853   1.384       .  A
C1851      C1854   1.375       .  A
C1852      C1858   1.385       .  A
C1853      C1861   1.376       .  A
C1854      H1867   1.083       .  S
C1854      N1855   1.347       .  A
N1855      C1856   1.351       .  A
N1855      C1898   1.424       .  S
C1856      H1857   1.082       .  S
C1858      H1868   1.082       .  S
C1858      N1859   1.357       .  A
N1859      C1860   1.351       .  A
N1859      C1965   1.435       .  S
C1860      H1866   1.082       .  S
C1861      H1863   1.083       .  S
C1861      N1862   1.356       .  A
N1862      C1864   1.353       .  A
C1864      H1865   1.082       .  S
O1869     Ni1875   1.938       .  S
O1869      C1890   1.269       .  A
O1870     Ni1893   1.940       .  S
O1870      C1879   1.277       .  A
O1871      H1894   0.967       .  S
O1871     Ni1875   1.913       .  S
O1871     Ni2301   1.930       .  S
O1871     Ni1887   1.911       .  S
C1872      O2297   1.278   1_554  A
C1872      O1881   1.281       .  A
O1873     Ni1892   1.937       .  S
O1873      C1879   1.270       .  A
O1874     Ni1892   1.909       .  S
O1874      C1876   1.268       .  A
Ni1875     O1878   1.918       .  S
Ni1875     O1880   1.912       .  S
C1876      O2294   1.283   1_554  A
O1877     Ni1893   1.936       .  S
O1877      C1883   1.280       .  A
O1878      C2291   1.280       .  A
C1879      C1908   1.493       .  S
O1880      C2290   1.269       .  A
O1881     Ni1892   1.918       .  S
C1882      O2288   1.269       .  A
C1882      O1888   1.281   1_556  A
C1883      O2286   1.280   1_554  A
H1884      O1885   0.966       .  S
O1885     Ni1893   1.912       .  S
O1885     Ni2295   1.929   1_554  S
O1885     Ni1892   1.910       .  S
O1886     Ni1887   1.976       .  S
O1886      C2284   1.283       .  A
Ni1887     O1891   1.936       .  S
Ni1887     O1889   1.933       .  S
Ni1887     O2293   1.929       .  S
O1888     Ni1893   1.974       .  S
O1889      C2280   1.278       .  A
C1890      O1891   1.275       .  A
C1890      C1902   1.490       .  S
Ni1893     O2279   1.930   1_554  S
O1895     Ni1901   1.902       .  S
O1895      C1916   1.264       .  A
O1896     Ni1919   1.924       .  S
O1896      C1905   1.269       .  A
O1897      H1920   0.967       .  S
O1897     Ni1901   1.897       .  S
O1897     Ni1919   1.894       .  S
O1897     Ni1913   1.921       .  S
C1898      O1915   1.279       .  A
C1898      O1907   1.282       .  A
O1899     Ni1918   1.904       .  S
O1899      C1905   1.263       .  A
O1900     Ni1918   1.905       .  S
O1900      C1902   1.263       .  A
Ni1901     O1904   1.924       .  S
Ni1901     O1906   1.906       .  S
C1902      O1912   1.278       .  A
O1903     Ni1919   1.920       .  S
O1903      C1909   1.282       .  A
O1904      C1909   1.281       .  A
O1906      C1908   1.263       .  A
O1907     Ni1918   1.927       .  S
C1908      O1914   1.279       .  A
H1910      O1911   0.965       .  S
O1911     Ni1919   1.927       .  S
O1911     Ni1913   1.897       .  S
O1911     Ni1918   1.897       .  S
O1912     Ni1913   1.959       .  S
Ni1913     O1917   1.918       .  S
Ni1913     O1915   1.918       .  S
O1914     Ni1919   1.964       .  S
C1916      O1917   1.267       .  A
C1921      C1922   1.408       .  A
C1921      C1926   1.387       .  A
C1921      H1928   1.083       .  S
C1922      C1923   1.409       .  A
C1923      C1924   1.382       .  A
C1923     Br1930   1.926       .  S
C1924      C1925   1.410       .  A
C1924      H1929   1.084       .  S
C1925      C1926   1.407       .  A
C1926     Br1927   1.916       .  S
C1931      C1932   1.403       .  A
C1931      C1936   1.388       .  A
C1931      H1938   1.081       .  S
C1932      C1933   1.415       .  A
C1933      C1934   1.387       .  A
C1933     Br1940   1.926       .  S
C1934      C1935   1.402       .  A
C1934      H1939   1.080       .  S
C1935      C1936   1.413       .  A
C1936     Br1937   1.925       .  S
C1941      C1942   1.399       .  A
C1941      C1946   1.387       .  A
C1941      H1948   1.080       .  S
C1942      C1943   1.413       .  A
C1943      C1944   1.387       .  A
C1943     Br1950   1.927       .  S
C1944      C1945   1.400       .  A
C1944      H1949   1.078       .  S
C1945      C1946   1.419       .  A
C1946     Br1947   1.930       .  S
C1951      C1952   1.406       .  A
C1951      C1956   1.389       .  A
C1951      H1958   1.082       .  S
C1952      C1953   1.415       .  A
C1953      C1954   1.386       .  A
C1953     Br1960   1.925       .  S
C1954      C1955   1.403       .  A
C1954      H1959   1.082       .  S
C1955      C1956   1.409       .  A
C1956     Br1957   1.923       .  S
C1961      C2778   1.403       .  A
C1961      C2782   1.402       .  A
C1961      H1968   1.083       .  S
C1962      C2777   1.403       .  A
C1962      C1963   1.411   1_565  A
C1962      N2531   1.436       .  S
C1963      C1964   1.395       .  A
C1963     Br1970   1.919       .  S
C1964      C1965   1.400       .  A
C1964      H1969   1.083       .  S
C1965      C1966   1.410       .  A
C1966      C2777   1.402   1_545  A
C1966     Br1967   1.918       .  S
C1971      C1972   1.401       .  A
C1971      C1976   1.389       .  A
C1971      H1978   1.082       .  S
C1972      C1973   1.407   1_554  A
C1973      C2790   1.395   1_545  A
C1973     Br1980   1.916   1_545  S
C1974      C2789   1.395       .  A
C1974      C2791   1.403   1_556  A
C1974      H1979   1.083       .  S
C1975      C2790   1.404   1_554  A
C1975      C1976   1.410   1_565  A
C1975      N2508   1.428       .  S
C1976     Br1977   1.923       .  S
C1981      C1982   1.399       .  A
C1981      C1986   1.386       .  A
C1981      H1988   1.082       .  S
C1982      C1983   1.415       .  A
C1983      C1984   1.389       .  A
C1983     Br1990   1.926       .  S
C1984      C1985   1.402       .  A
C1984      H1989   1.084       .  S
C1985      C1986   1.419       .  A
C1986     Br1987   1.928       .  S
C1991      C1992   1.405       .  A
C1991      C1996   1.384       .  A
C1991      H1998   1.081       .  S
C1992      C1993   1.415       .  A
C1993      C1994   1.382       .  A
C1993     Br2000   1.931       .  S
C1994      C1995   1.403       .  A
C1994      H1999   1.082       .  S
C1995      C1996   1.410       .  A
C1996     Br1997   1.926       .  S
C2001      C2002   1.404       .  A
C2001      C2006   1.402       .  A
C2001      H2008   1.083       .  S
C2002      C2003   1.412       .  A
C2003      C2004   1.402       .  A
C2003     Br2010   1.920       .  S
C2004      C2005   1.405       .  A
C2005      C2006   1.413       .  A
C2006     Br2007   1.919       .  S
C2011      C2012   1.403       .  A
C2011      C2016   1.405       .  A
C2011      H2018   1.083       .  S
C2012      C2421   1.409       .  A
C2013      C2420   1.409       .  A
C2013      C2014   1.404       .  A
C2013     Br2020   1.915       .  S
C2014      C2423   1.402       .  A
C2015      C2422   1.402       .  A
C2015      C2016   1.408       .  A
C2016     Br2017   1.916   1_554  S
C2021      C2022   1.402       .  A
C2021      C2026   1.388       .  A
C2021      H2028   1.082       .  S
C2022      C2023   1.412       .  A
C2023      C2024   1.387       .  A
C2023     Br2030   1.927       .  S
C2024      C2025   1.404       .  A
C2024      H2029   1.082       .  S
C2025      C2026   1.413       .  A
C2026     Br2027   1.925       .  S
C2031      C2032   1.398       .  A
C2031      C2036   1.387       .  A
C2031      H2038   1.078       .  S
C2032      C2033   1.422       .  A
C2033      C2034   1.387       .  A
C2033     Br2040   1.931       .  S
C2034      C2035   1.396       .  A
C2034      H2039   1.080       .  S
C2035      C2036   1.415       .  A
C2036     Br2037   1.927       .  S
C2041      C2043   1.536       .  S
C2041      C2045   1.557       .  S
C2041      C2044   1.540       .  S
C2041      C2430   1.500       .  S
C2042      C2046   1.551       .  S
C2042      C2048   1.565       .  S
C2042      C2047   1.533       .  S
C2042      C2440   1.503       .  S
C2043      C2051   1.388       .  A
C2044      C2055   1.390       .  A
C2045      C2059   1.385       .  A
C2046      C2049   1.390       .  A
C2047      C2053   1.380       .  A
C2048      C2056   1.404       .  A
C2049      H2062   1.082       .  S
N2050      C2051   1.359       .  A
N2050      C2147   1.444       .  S
C2051      H2052   1.082       .  S
C2053      H2063   1.082       .  S
C2053      N2054   1.354       .  A
C2055      H2061   1.082       .  S
C2056      H2058   1.081       .  S
C2056      N2057   1.366       .  A
N2057      C2290   1.459       .  S
C2059      H2060   1.082       .  S
C2064      C2066   1.545       .  S
C2064      C2068   1.538       .  S
C2064      C2067   1.528       .  S
C2064      C2443   1.503       .  S
C2065      C2069   1.531       .  S
C2065      C2071   1.537       .  S
C2065      C2070   1.548       .  S
C2065      C2433   1.503       .  S
C2066      C2074   1.386       .  A
C2066      C2069   1.389       .  A
C2067      C2078   1.377       .  A
C2067      C2070   1.382       .  A
C2068      C2082   1.371       .  A
C2068      C2071   1.386       .  A
C2069      C2072   1.370       .  A
C2070      C2076   1.386       .  A
C2071      C2079   1.384       .  A
C2072      H2085   1.083       .  S
C2072      N2073   1.353       .  A
N2073      C2074   1.359       .  A
N2073      C2173   1.425       .  S
C2074      H2075   1.080       .  S
C2076      H2086   1.081       .  S
C2076      N2077   1.362       .  A
N2077      C2078   1.356       .  A
C2078      H2084   1.083       .  S
C2079      H2081   1.082       .  S
C2079      N2080   1.357       .  A
N2080      C2082   1.353       .  A
N2080      C2324   1.428       .  S
C2082      H2083   1.082       .  S
C2087      C2089   1.516       .  S
C2087      C2091   1.509       .  S
C2087      C2090   1.539       .  S
C2087      C2403   1.502       .  S
C2088      C2092   1.563       .  S
C2088      C2094   1.547       .  S
C2088      C2093   1.522       .  S
C2088      C2393   1.505       .  S
C2089      C2097   1.361       .  A
C2090      C2101   1.379       .  A
C2091      C2105   1.368       .  A
C2092      C2095   1.408       .  A
C2093      C2099   1.373       .  A
C2094      C2102   1.397       .  A
C2095      H2108   1.082       .  S
N2096      C2097   1.343       .  A
N2096      C2280   1.441       .  S
C2097      H2098   1.083       .  S
C2099      H2109   1.083       .  S
N2100      C2101   1.349       .  A
N2100      C3199   1.428       .  S
C2101      H2107   1.082       .  S
C2102      H2104   1.082       .  S
N2103      C2105   1.342       .  A
N2103      C2143   1.433       .  S
C2105      H2106   1.083       .  S
C2110      C2112   1.535       .  S
C2110      C2114   1.524       .  S
C2110      C2113   1.543       .  S
C2110      C2390   1.506       .  S
C2111      C2115   1.543       .  S
C2111      C2117   1.524       .  S
C2111      C2116   1.539       .  S
C2111      C2400   1.500       .  S
C2112      C2120   1.378       .  A
C2112      C2115   1.407       .  A
C2113      C2124   1.380       .  A
C2113      C2116   1.389       .  A
C2114      C2128   1.377       .  A
C2114      C2117   1.379       .  A
C2115      C2118   1.389       .  A
C2116      C2122   1.377       .  A
C2117      C2125   1.378       .  A
C2118      H2131   1.082       .  S
C2118      N2119   1.347       .  A
N2119      C2120   1.346       .  A
N2119      C2317   1.422       .  S
C2120      H2121   1.083       .  S
C2122      H2132   1.082       .  S
C2122      N2123   1.354       .  A
N2123      C2124   1.358       .  A
N2123      C3186   1.435       .  S
C2124      H2130   1.082       .  S
C2125      H2127   1.082       .  S
C2125      N2126   1.351       .  A
N2126      C2128   1.355       .  A
N2126      C2169   1.428       .  S
C2128      H2129   1.083       .  S
O2133     Ni2139   1.910       .  S
O2134      C2551   1.273   1_556  A
O2135      H2158   0.967       .  S
O2135     Ni2151   1.956       .  S
C2136      N2194   1.446       .  S
C2136      O2153   1.294       .  A
C2136      O2145   1.281       .  A
O2137      C2143   1.275       .  A
O2138     Ni2156   1.958       .  S
O2138      C2956   1.274       .  A
Ni2139     O2142   1.928       .  S
Ni2139     O2144   1.955       .  S
C2140      O2954   1.274   1_545  A
C2140      O2150   1.300       .  A
C2140      C2172   1.567       .  S
O2141      C2147   1.288       .  A
C2143      O2542   1.271       .  A
O2144      C2146   1.273       .  A
O2145     Ni2156   1.923       .  S
C2146      O2152   1.299       .  A
C2146      C2166   1.565       .  S
O2149     Ni2967   1.891       .  S
O2149     Ni2156   1.908       .  S
O2150     Ni2151   2.027       .  S
Ni2151     O2155   1.932       .  S
Ni2151     O2969   1.965   1_545  S
Ni2151     O2965   1.892   1_545  S
O2153     Ni2967   1.967       .  S
C2154      N2247   1.437       .  S
C2154      O2155   1.277       .  A
O2159     Ni2165   1.915       .  S
O2159      C2180   1.273       .  A
O2160     Ni2183   1.915       .  S
O2160      C2985   1.277   1_545  A
O2161      H2184   0.967       .  S
O2161     Ni2165   1.905       .  S
O2161     Ni2177   1.935       .  S
C2162      N2217   1.422       .  S
C2162      O2179   1.283       .  A
C2162      O2171   1.279       .  A
O2163      C2169   1.270       .  A
O2164     Ni2182   1.937       .  S
O2164      C2982   1.270       .  A
Ni2165     O2168   1.915       .  S
Ni2165     O2170   1.942       .  S
C2166      O2980   1.270       .  A
C2166      O2176   1.304       .  A
O2167     Ni2183   1.931       .  S
O2167      C2173   1.283       .  A
C2169      O2976   1.276       .  A
O2170      C2172   1.271       .  A
O2171     Ni2182   1.911       .  S
C2172      O2178   1.304       .  A
H2174      O2175   0.967       .  S
O2175     Ni2993   1.889       .  S
O2175     Ni2182   1.907       .  S
O2176     Ni2177   2.039       .  S
Ni2177     O2181   1.915       .  S
Ni2177     O2995   1.929   1_545  S
Ni2177     O2991   1.888   1_545  S
O2179     Ni2993   1.928       .  S
C2180      N2270   1.431       .  S
C2180      O2181   1.277       .  A
C2185      C2353   1.502       .  S
C2186      C2190   1.539       .  S
C2186      C2192   1.558       .  S
C2186      C2191   1.544       .  S
C2186      C2360   1.503       .  S
C2187      C2190   1.378       .  A
C2188      C2191   1.380       .  A
C2189      C2192   1.393       .  A
C2190      C2193   1.389       .  A
C2191      C2197   1.392       .  A
C2192      C2200   1.387       .  A
C2193      H2206   1.082       .  S
C2193      N2194   1.361       .  A
C2195      H2196   1.082   1_554  S
C2197      H2207   1.082       .  S
C2197      N2198   1.360       .  A
N2198      C2420   1.440       .  S
C2199      H2205   1.083       .  S
C2200      H2202   1.082       .  S
C2200      N2201   1.363       .  A
N2201      C2284   1.457       .  S
C2203      H2204   1.081       .  S
C2208      C2210   1.529       .  S
C2208      C2212   1.536       .  S
C2208      C2211   1.545       .  S
C2208      C2363   1.503       .  S
C2209      C2213   1.542       .  S
C2209      C2215   1.541       .  S
C2209      C2214   1.528       .  S
C2209      C2350   1.503       .  S
C2210      C2218   1.369       .  A
C2210      C2213   1.388       .  A
C2211      C2222   1.384       .  A
C2211      C2214   1.381       .  A
C2212      C2226   1.383       .  A
C2212      C2215   1.390       .  A
C2213      C2216   1.385       .  A
C2214      C2220   1.378       .  A
C2215      C2223   1.370       .  A
C2216      H2229   1.081       .  S
C2216      N2217   1.357       .  A
N2217      C2218   1.353       .  A
C2218      H2219   1.083       .  S
C2220      H2230   1.083       .  S
C2220      N2221   1.357       .  A
N2221      C2222   1.360       .  A
N2221      C2410   1.443       .  S
C2222      H2228   1.082       .  S
C2223      H2225   1.082       .  S
C2223      N2224   1.355       .  A
N2224      C2226   1.357       .  A
N2224      C2313   1.429       .  S
C2226      H2227   1.082       .  S
C2231      C2233   1.547       .  S
C2231      C2235   1.552       .  S
C2231      C2234   1.533       .  S
C2231      C2340   1.507       .  S
C2232      C2236   1.518   1_556  S
C2232      C2238   1.532   1_556  S
C2232      C2237   1.544   1_556  S
C2232      C2333   1.509       .  S
C2233      C2241   1.401       .  A
C2234      C2245   1.366       .  A
C2235      C2249   1.404       .  A
C2236      C2239   1.364   1_554  A
C2237      C2243   1.380   1_554  A
C2238      C2246   1.372   1_554  A
C2239      H2252   1.083       .  S
N2240      C2241   1.366       .  A
N2240      C2291   1.442       .  S
C2241      H2242   1.082       .  S
C2243      H2253   1.081       .  S
N2244      C2245   1.352       .  A
N2244      C2380   1.430       .  S
C2245      H2251   1.082       .  S
C2246      H2248   1.083       .  S
N2247      C2249   1.355       .  A
C2249      H2250   1.082       .  S
C2254      C2256   1.538       .  S
C2254      C2258   1.533       .  S
C2254      C2257   1.540       .  S
C2254      C2330   1.504       .  S
C2255      C2259   1.531       .  S
C2255      C2261   1.527       .  S
C2255      C2260   1.545       .  S
C2255      C2343   1.506       .  S
C2256      C2264   1.389       .  A
C2256      C2259   1.398       .  A
C2257      C2268   1.376       .  A
C2257      C2260   1.391       .  A
C2258      C2272   1.381       .  A
C2258      C2261   1.384       .  A
C2259      C2262   1.375       .  A
C2260      C2266   1.385       .  A
C2261      C2269   1.376       .  A
C2262      H2275   1.083       .  S
C2262      N2263   1.347       .  A
N2263      C2264   1.351       .  A
N2263      C2306   1.424       .  S
C2264      H2265   1.082       .  S
C2266      H2276   1.082       .  S
C2266      N2267   1.357       .  A
N2267      C2268   1.351       .  A
N2267      C2373   1.435       .  S
C2268      H2274   1.082       .  S
C2269      H2271   1.083       .  S
C2269      N2270   1.356       .  A
N2270      C2272   1.353       .  A
C2272      H2273   1.082       .  S
O2277     Ni2283   1.938       .  S
O2277      C2298   1.269       .  A
O2278     Ni2301   1.940       .  S
O2278      C2287   1.277       .  A
O2279      H2302   0.967       .  S
O2279     Ni2283   1.913       .  S
O2279     Ni2295   1.911       .  S
C2280      O2289   1.281       .  A
O2281     Ni2300   1.937       .  S
O2281      C2287   1.270       .  A
O2282     Ni2300   1.909       .  S
O2282      C2284   1.268       .  A
Ni2283     O2286   1.918       .  S
Ni2283     O2288   1.912       .  S
O2285     Ni2301   1.936       .  S
O2285      C2291   1.280       .  A
C2287      C2316   1.493       .  S
O2289     Ni2300   1.918       .  S
C2290      O2296   1.281       .  A
H2292      O2293   0.966       .  S
O2293     Ni2301   1.912       .  S
O2293     Ni2300   1.910       .  S
O2294     Ni2295   1.976       .  S
Ni2295     O2299   1.936       .  S
Ni2295     O2297   1.933       .  S
O2296     Ni2301   1.974       .  S
C2298      O2299   1.275       .  A
C2298      C2310   1.490       .  S
O2303     Ni2309   1.902       .  S
O2303      C2324   1.264       .  A
O2304     Ni2327   1.924       .  S
O2304      C2313   1.269       .  A
O2305      H2328   0.967       .  S
O2305     Ni2309   1.897       .  S
O2305     Ni2327   1.894       .  S
O2305     Ni2321   1.921       .  S
C2306      O2323   1.279       .  A
C2306      O2315   1.282       .  A
O2307     Ni2326   1.904       .  S
O2307      C2313   1.263       .  A
O2308     Ni2326   1.905       .  S
O2308      C2310   1.263       .  A
Ni2309     O2312   1.924       .  S
Ni2309     O2314   1.907       .  S
C2310      O2320   1.278       .  A
O2311     Ni2327   1.920       .  S
O2311      C2317   1.282       .  A
O2312      C2317   1.281       .  A
O2314      C2316   1.263       .  A
O2315     Ni2326   1.927       .  S
C2316      O2322   1.279       .  A
H2318      O2319   0.965       .  S
O2319     Ni2327   1.927       .  S
O2319     Ni2321   1.897       .  S
O2319     Ni2326   1.897       .  S
O2320     Ni2321   1.959       .  S
Ni2321     O2325   1.918       .  S
Ni2321     O2323   1.918       .  S
O2322     Ni2327   1.964       .  S
C2324      O2325   1.267       .  A
C2329      C2330   1.408       .  A
C2329      C2334   1.387       .  A
C2329      H2336   1.083       .  S
C2330      C2331   1.409       .  A
C2331      C2332   1.382       .  A
C2331     Br2338   1.926       .  S
C2332      C2333   1.410       .  A
C2332      H2337   1.084       .  S
C2333      C2334   1.407       .  A
C2334     Br2335   1.916       .  S
C2339      C2340   1.403       .  A
C2339      C2344   1.388       .  A
C2339      H2346   1.081       .  S
C2340      C2341   1.415       .  A
C2341      C2342   1.387       .  A
C2341     Br2348   1.926       .  S
C2342      C2343   1.402       .  A
C2342      H2347   1.080       .  S
C2343      C2344   1.413       .  A
C2344     Br2345   1.925       .  S
C2349      C2350   1.399       .  A
C2349      C2354   1.387       .  A
C2349      H2356   1.080       .  S
C2350      C2351   1.413       .  A
C2351      C2352   1.387       .  A
C2351     Br2358   1.927       .  S
C2352      C2353   1.400       .  A
C2352      H2357   1.078       .  S
C2353      C2354   1.419       .  A
C2354     Br2355   1.930       .  S
C2359      C2360   1.406       .  A
C2359      C2364   1.389       .  A
C2359      H2366   1.082       .  S
C2360      C2361   1.415       .  A
C2361      C2362   1.386       .  A
C2361     Br2368   1.925       .  S
C2362      C2363   1.403       .  A
C2362      H2367   1.082       .  S
C2363      C2364   1.409       .  A
C2364     Br2365   1.923       .  S
C2369      C3186   1.403       .  A
C2369      C3190   1.402       .  A
C2369      H2376   1.083       .  S
C2370      C3185   1.403       .  A
C2370      C2371   1.411   1_565  A
C2370      N2939   1.436       .  S
C2371      C2372   1.395       .  A
C2371     Br2378   1.919       .  S
C2372      C2373   1.400       .  A
C2372      H2377   1.083       .  S
C2373      C2374   1.410       .  A
C2374      C3185   1.402   1_545  A
C2374     Br2375   1.918       .  S
C2379      C2380   1.401       .  A
C2379      C2384   1.389       .  A
C2379      H2386   1.082       .  S
C2380      C2381   1.407       .  A
C2381      C3198   1.395   1_545  A
C2381     Br2388   1.916   1_545  S
C2382      C3197   1.395       .  A
C2382      C3199   1.403       .  A
C2382      H2387   1.083       .  S
C2383      C3198   1.404       .  A
C2383      C2384   1.410   1_565  A
C2383      N2916   1.428       .  S
C2384     Br2385   1.923       .  S
C2389      C2390   1.399       .  A
C2389      C2394   1.386       .  A
C2389      H2396   1.082       .  S
C2390      C2391   1.415       .  A
C2391      C2392   1.389       .  A
C2391     Br2398   1.926       .  S
C2392      C2393   1.402       .  A
C2392      H2397   1.084       .  S
C2393      C2394   1.419       .  A
C2394     Br2395   1.928       .  S
C2399      C2400   1.405       .  A
C2399      C2404   1.384       .  A
C2399      H2406   1.081       .  S
C2400      C2401   1.415       .  A
C2401      C2402   1.382       .  A
C2401     Br2408   1.931       .  S
C2402      C2403   1.403       .  A
C2402      H2407   1.082       .  S
C2403      C2404   1.410       .  A
C2404     Br2405   1.926       .  S
C2409      C2410   1.404       .  A
C2409      C2414   1.402       .  A
C2409      H2416   1.083       .  S
C2410      C2411   1.412       .  A
C2411      C2412   1.402       .  A
C2411     Br2418   1.920       .  S
C2412      C2413   1.405       .  A
C2413      C2414   1.413       .  A
C2414     Br2415   1.919       .  S
C2419      C2420   1.403       .  A
C2419      C2424   1.405       .  A
C2419      H2426   1.083       .  S
C2421      C2422   1.404       .  A
C2421     Br2428   1.915       .  S
C2423      C2424   1.408       .  A
C2424     Br2425   1.916       .  S
C2429      C2430   1.402       .  A
C2429      C2434   1.388       .  A
C2429      H2436   1.082       .  S
C2430      C2431   1.412       .  A
C2431      C2432   1.387       .  A
C2431     Br2438   1.927       .  S
C2432      C2433   1.404       .  A
C2432      H2437   1.082       .  S
C2433      C2434   1.413       .  A
C2434     Br2435   1.925       .  S
C2439      C2440   1.398       .  A
C2439      C2444   1.387       .  A
C2439      H2446   1.078       .  S
C2440      C2441   1.422       .  A
C2441      C2442   1.387       .  A
C2441     Br2448   1.931       .  S
C2442      C2443   1.396       .  A
C2442      H2447   1.080       .  S
C2443      C2444   1.415       .  A
C2444     Br2445   1.927       .  S
C2449      C2451   1.536       .  S
C2449      C2453   1.556       .  S
C2449      C2452   1.537       .  S
C2449      C2838   1.500       .  S
C2450      C2454   1.551       .  S
C2450      C2456   1.565       .  S
C2450      C2455   1.534       .  S
C2450      C2848   1.503       .  S
C2451      C2459   1.387       .  A
C2451      C2862   1.381       .  A
C2452      C2463   1.387       .  A
C2452      C2863   1.375       .  A
C2453      C2467   1.384       .  A
C2453      C2864   1.394       .  A
C2454      C2859   1.381   1_554  A
C2454      C2457   1.389       .  A
C2455      C2860   1.375   1_554  A
C2455      C2461   1.381       .  A
C2456      C2861   1.394   1_554  A
C2456      C2464   1.404       .  A
C2457      H2470   1.082       .  S
C2457      N2866   1.360   1_554  A
N2458      C2865   1.360       .  A
N2458      C2459   1.359       .  A
N2458      C2555   1.443       .  S
C2459      H2460   1.082       .  S
C2461      H2471   1.082       .  S
C2461      N2462   1.357       .  A
N2462      C2871   1.360   1_554  A
C2463      H2469   1.082       .  S
C2463      N2870   1.360       .  A
C2464      H2466   1.081       .  S
C2464      N2465   1.367   1_554  A
N2465      C2875   1.361       .  A
N2465      C2698   1.458       .  S
C2467      H2468   1.082       .  S
C2467      N2873   1.361       .  A
C2472      C2474   1.545       .  S
C2472      C2476   1.537       .  S
C2472      C2475   1.529       .  S
C2472      C2851   1.501       .  S
C2473      C2477   1.531       .  S
C2473      C2479   1.536       .  S
C2473      C2478   1.548       .  S
C2473      C2841   1.502       .  S
C2474      C2482   1.386       .  A
C2474      C2477   1.388       .  A
C2475      C2486   1.379       .  A
C2475      C2478   1.382       .  A
C2476      C2490   1.370       .  A
C2476      C2479   1.386       .  A
C2477      C2480   1.370       .  A
C2478      C2484   1.386       .  A
C2479      C2487   1.383       .  A
C2480      H2493   1.083       .  S
C2480      N2481   1.353       .  A
N2481      C2482   1.357       .  A
N2481      C2581   1.424       .  S
C2482      H2483   1.080       .  S
C2484      H2494   1.081       .  S
C2484      N2485   1.361       .  A
N2485      C2486   1.357       .  A
C2486      H2492   1.083       .  S
C2487      H2489   1.083       .  S
C2487      N2488   1.357       .  A
N2488      C2490   1.352       .  A
N2488      C2732   1.427       .  S
C2490      H2491   1.082       .  S
C2495      C2497   1.518       .  S
C2495      C2499   1.510       .  S
C2495      C2498   1.539       .  S
C2495      C2811   1.502       .  S
C2496      C2500   1.564       .  S
C2496      C2502   1.548       .  S
C2496      C2501   1.522       .  S
C2496      C2801   1.505       .  S
C2497      C2505   1.363       .  A
C2497      C2908   1.402   1_554  A
C2498      C2509   1.379       .  A
C2498      C2909   1.393   1_554  A
C2499      C2513   1.369       .  A
C2499      C2910   1.393   1_554  A
C2500      C2905   1.402       .  A
C2500      C2503   1.409       .  A
C2501      C2906   1.393       .  A
C2501      C2507   1.372       .  A
C2502      C2907   1.393       .  A
C2502      C2510   1.398       .  A
C2503      H2516   1.082       .  S
C2503      N2912   1.363       .  A
N2504      C2911   1.363       .  A
N2504      C2505   1.344   1_556  A
N2504      C2688   1.442   1_556  S
C2505      H2506   1.083       .  S
C2507      H2517   1.083       .  S
C2507      N2916   1.347       .  A
N2508      C2915   1.347   1_554  A
N2508      C2509   1.350       .  A
C2509      H2515   1.082       .  S
C2510      H2512   1.082       .  S
C2510      N2919   1.357       .  A
N2511      C2918   1.357   1_554  A
N2511      C2513   1.343       .  A
N2511      C2551   1.435       .  S
C2513      H2514   1.083       .  S
C2518      C2520   1.537       .  S
C2518      C2522   1.525       .  S
C2518      C2521   1.543       .  S
C2518      C2798   1.506       .  S
C2519      C2523   1.543       .  S
C2519      C2525   1.525       .  S
C2519      C2524   1.540       .  S
C2519      C2808   1.500       .  S
C2520      C2528   1.379       .  A
C2520      C2523   1.406       .  A
C2521      C2532   1.380       .  A
C2521      C2524   1.389       .  A
C2522      C2536   1.378       .  A
C2522      C2525   1.379       .  A
C2523      C2526   1.389       .  A
C2524      C2530   1.378       .  A
C2525      C2533   1.379       .  A
C2526      H2539   1.082       .  S
C2526      N2527   1.347       .  A
N2527      C2528   1.347       .  A
N2527      C2725   1.424       .  S
C2528      H2529   1.083       .  S
C2530      H2540   1.082       .  S
C2530      N2531   1.355       .  A
N2531      C2532   1.358       .  A
C2532      H2538   1.082       .  S
C2533      H2535   1.082       .  S
C2533      N2534   1.351       .  A
N2534      C2536   1.355       .  A
N2534      C2577   1.429       .  S
C2536      H2537   1.083       .  S
O2541     Ni2547   1.911       .  S
O2541      C2970   1.274       .  A
O2542     Ni2973   1.918       .  S
O2543      H2566   0.967       .  S
O2543     Ni2955   1.911   1_554  S
O2543     Ni2559   1.957       .  S
C2544      N2602   1.447       .  S
C2544      O2561   1.293       .  A
C2544      O2553   1.282       .  A
O2545      C2551   1.275       .  A
O2546     Ni2564   1.957       .  S
Ni2547     O2550   1.929       .  S
Ni2547     O2552   1.955       .  S
Ni2547     O2951   1.911       .  S
C2548      O2558   1.301       .  A
C2548      C2580   1.569       .  S
O2549     Ni2973   1.952       .  S
O2549      C2555   1.286       .  A
O2552      C2554   1.272       .  A
O2553     Ni2564   1.926       .  S
C2554      O2560   1.299       .  A
C2554      C2574   1.563       .  S
H2556      O2965   0.967       .  S
O2557      H2964   0.967   1_554  S
O2557     Ni2564   1.909       .  S
O2558     Ni2559   2.029       .  S
Ni2559     O2563   1.935       .  S
C2562      N2655   1.439       .  S
C2562      O2949   1.274   1_554  A
C2562      O2563   1.278       .  A
Ni2565     O2950   1.918       .  S
Ni2565     O2957   1.952       .  S
O2567     Ni2573   1.916       .  S
O2567      C2588   1.273       .  A
O2568     Ni2591   1.913       .  S
O2569      H2592   0.967       .  S
O2569     Ni2573   1.903       .  S
O2569     Ni2585   1.933       .  S
C2570      N2625   1.423       .  S
C2570      O2587   1.283       .  A
C2570      O2579   1.279       .  A
O2571      C2577   1.270       .  A
O2572     Ni2590   1.939   1_545  S
Ni2573     O2576   1.915       .  S
Ni2573     O2578   1.944       .  S
C2574      O2584   1.303       .  A
O2575     Ni2591   1.929       .  S
O2575      C2581   1.283       .  A
O2578      C2580   1.271       .  A
O2579     Ni2590   1.912       .  S
C2580      O2586   1.304       .  A
H2582      O2583   0.967       .  S
O2583     Ni2590   1.907       .  S
O2584     Ni2585   2.039       .  S
Ni2585     O2589   1.917       .  S
C2588      N2678   1.431       .  S
C2588      O2589   1.277       .  A
C2593      C3003   1.553       .  S
C2593      C3005   1.561       .  S
C2593      C3004   1.534       .  S
C2593      C2761   1.500       .  S
C2594      C2598   1.539       .  S
C2594      C2600   1.561       .  S
C2594      C2599   1.543       .  S
C2594      C2768   1.502       .  S
C2595      C3001   1.553   1_554  S
C2595      C3011   1.392       .  A
C2595      C2598   1.378       .  A
C2596      C3001   1.534   1_554  S
C2596      C3015   1.381   1_554  A
C2596      C2599   1.377       .  A
C2597      C3001   1.561   1_554  S
C2597      C3019   1.403   1_554  A
C2597      C2600   1.391       .  A
C2598      C2601   1.390       .  A
C2599      C2605   1.390       .  A
C2600      C2608   1.390       .  A
C2601      H2614   1.082       .  S
C2601      N2602   1.361       .  A
N2602      C3011   1.362       .  A
C2603      C3003   1.392       .  A
C2603      H2604   1.082       .  S
C2603      N3010   1.362       .  A
C2605      H2615   1.082       .  S
C2605      N2606   1.363       .  A
N2606      C3015   1.356   1_554  A
N2606      C2828   1.449       .  S
C2607      C3004   1.381       .  A
C2607      H2613   1.082       .  S
C2607      N3014   1.356       .  A
C2608      H2610   1.082       .  S
C2608      N2609   1.364       .  A
N2609      C3019   1.364   1_554  A
N2609      C2692   1.460       .  S
C2611      C3005   1.403       .  A
C2611      H2612   1.081       .  S
C2611      N3017   1.364       .  A
C2616      C2618   1.531       .  S
C2616      C2620   1.538       .  S
C2616      C2619   1.544       .  S
C2616      C2771   1.503       .  S
C2617      C2621   1.543       .  S
C2617      C2623   1.540       .  S
C2617      C2622   1.528       .  S
C2617      C2758   1.501       .  S
C2618      C2626   1.370       .  A
C2618      C2621   1.387       .  A
C2619      C2630   1.384       .  A
C2619      C2622   1.380       .  A
C2620      C2634   1.384       .  A
C2620      C2623   1.389       .  A
C2621      C2624   1.385       .  A
C2622      C2628   1.379       .  A
C2623      C2631   1.370       .  A
C2624      H2637   1.081       .  S
C2624      N2625   1.357       .  A
N2625      C2626   1.354       .  A
C2626      H2627   1.083       .  S
C2628      H2638   1.083       .  S
C2628      N2629   1.357       .  A
N2629      C2630   1.360       .  A
N2629      C2818   1.443       .  S
C2630      H2636   1.082       .  S
C2631      H2633   1.082       .  S
C2631      N2632   1.354       .  A
N2632      C2634   1.357       .  A
N2632      C2721   1.429       .  S
C2634      H2635   1.082       .  S
C2639      C2641   1.547       .  S
C2639      C2643   1.552       .  S
C2639      C2642   1.533       .  S
C2639      C2748   1.507       .  S
C2640      C2644   1.519       .  S
C2640      C2646   1.533       .  S
C2640      C2645   1.544       .  S
C2640      C2741   1.509       .  S
C2641      C2649   1.401       .  A
C2641      C3052   1.371       .  A
C2642      C2653   1.366       .  A
C2642      C3053   1.393       .  A
C2643      C2657   1.404       .  A
C2643      C3054   1.407       .  A
C2644      C3049   1.371       .  A
C2644      C2647   1.365       .  A
C2645      C3050   1.393       .  A
C2645      C2651   1.381       .  A
C2646      C3051   1.407       .  A
C2646      C2654   1.373       .  A
C2647      H2660   1.083       .  S
C2647      N3056   1.352       .  A
N2648      C3055   1.352   1_554  A
N2648      C2649   1.366       .  A
N2648      C2699   1.443       .  S
C2649      H2650   1.082       .  S
C2651      H2661   1.081       .  S
C2651      N3060   1.359       .  A
N2652      C3059   1.359   1_554  A
N2652      C2653   1.351       .  A
N2652      C2788   1.430       .  S
C2653      H2659   1.082       .  S
C2654      H2656   1.083       .  S
C2654      N3063   1.343       .  A
N2655      C3062   1.343   1_554  A
N2655      C2657   1.355       .  A
C2657      H2658   1.082       .  S
C2662      C2664   1.538       .  S
C2662      C2666   1.534       .  S
C2662      C2665   1.538       .  S
C2662      C2738   1.504       .  S
C2663      C2667   1.530       .  S
C2663      C2669   1.530       .  S
C2663      C2668   1.545       .  S
C2663      C2751   1.506       .  S
C2664      C2672   1.388       .  A
C2664      C2667   1.395       .  A
C2665      C2676   1.375       .  A
C2665      C2668   1.390       .  A
C2666      C2680   1.382       .  A
C2666      C2669   1.388       .  A
C2667      C2670   1.375       .  A
C2668      C2674   1.384       .  A
C2669      C2677   1.378       .  A
C2670      H2683   1.083       .  S
C2670      N2671   1.349       .  A
N2671      C2672   1.352       .  A
N2671      C2714   1.424       .  S
C2672      H2673   1.082       .  S
C2674      H2684   1.082       .  S
C2674      N2675   1.358       .  A
N2675      C2676   1.351       .  A
N2675      C2781   1.434       .  S
C2676      H2682   1.082       .  S
C2677      H2679   1.083       .  S
C2677      N2678   1.355       .  A
N2678      C2680   1.353       .  A
C2680      H2681   1.082       .  S
O2685     Ni2691   1.938       .  S
O2685      C2706   1.269       .  A
O2686     Ni2709   1.941       .  S
O2686      C2695   1.277       .  A
O2687      H2710   0.967       .  S
O2687     Ni2691   1.913       .  S
O2687     Ni3117   1.931       .  S
O2687     Ni2703   1.911       .  S
C2688      O3113   1.278   1_554  A
C2688      O2697   1.281       .  A
O2689     Ni2708   1.937       .  S
O2689      C2695   1.270       .  A
O2690     Ni2708   1.913       .  S
O2690      C2692   1.269       .  A
Ni2691     O2694   1.919       .  S
Ni2691     O2696   1.913       .  S
C2692      O3110   1.284   1_554  A
O2693     Ni2709   1.937       .  S
O2693      C2699   1.281       .  A
O2694      C3107   1.280       .  A
C2695      C2724   1.494       .  S
O2696      C3106   1.269       .  A
O2697     Ni2708   1.919       .  S
C2698      O3104   1.269       .  A
C2698      O2704   1.280   1_556  A
C2699      O3102   1.280   1_554  A
H2700      O2701   0.966       .  S
O2701     Ni2709   1.914       .  S
O2701     Ni3111   1.929   1_554  S
O2701     Ni2708   1.910       .  S
O2702     Ni2703   1.978       .  S
O2702      C3100   1.284       .  A
Ni2703     O2707   1.937       .  S
Ni2703     O2705   1.935       .  S
Ni2703     O3109   1.929       .  S
O2704     Ni2709   1.972       .  S
O2705      C3096   1.278       .  A
C2706      O2707   1.275       .  A
C2706      C2718   1.491       .  S
Ni2709     O3095   1.931   1_554  S
O2711     Ni2717   1.903       .  S
O2711      C2732   1.264       .  A
O2712     Ni2735   1.924       .  S
O2712      C2721   1.269       .  A
O2713      H2736   0.967       .  S
O2713     Ni2717   1.898       .  S
O2713     Ni2735   1.893       .  S
O2713     Ni2729   1.920       .  S
C2714      O2731   1.279       .  A
C2714      O2723   1.282       .  A
O2715     Ni2734   1.905       .  S
O2715      C2721   1.264       .  A
O2716     Ni2734   1.907       .  S
O2716      C2718   1.263       .  A
Ni2717     O2720   1.925       .  S
Ni2717     O2722   1.909       .  S
C2718      O2728   1.278       .  A
O2719     Ni2735   1.921       .  S
O2719      C2725   1.282       .  A
O2720      C2725   1.282       .  A
O2722      C2724   1.264       .  A
O2723     Ni2734   1.928       .  S
C2724      O2730   1.279       .  A
H2726      O2727   0.965       .  S
O2727     Ni2735   1.927       .  S
O2727     Ni2729   1.897       .  S
O2727     Ni2734   1.898       .  S
O2728     Ni2729   1.959       .  S
Ni2729     O2733   1.916       .  S
Ni2729     O2731   1.917       .  S
O2730     Ni2735   1.963       .  S
C2732      O2733   1.266       .  A
C2737      C2738   1.408       .  A
C2737      C2742   1.387       .  A
C2737      H2744   1.083       .  S
C2738      C2739   1.409       .  A
C2739      C2740   1.382       .  A
C2739     Br2746   1.925       .  S
C2740      C2741   1.410       .  A
C2740      H2745   1.084       .  S
C2741      C2742   1.407       .  A
C2742     Br2743   1.917       .  S
C2747      C2748   1.403       .  A
C2747      C2752   1.388       .  A
C2747      H2754   1.081       .  S
C2748      C2749   1.415       .  A
C2749      C2750   1.388       .  A
C2749     Br2756   1.927       .  S
C2750      C2751   1.403       .  A
C2750      H2755   1.080       .  S
C2751      C2752   1.413       .  A
C2752     Br2753   1.924       .  S
C2757      C2758   1.397       .  A
C2757      C2762   1.385       .  A
C2757      H2764   1.080       .  S
C2758      C2759   1.413       .  A
C2759      C2760   1.386       .  A
C2759     Br2766   1.927       .  S
C2760      C2761   1.401       .  A
C2760      H2765   1.078       .  S
C2761      C2762   1.419       .  A
C2762     Br2763   1.930       .  S
C2767      C2768   1.405       .  A
C2767      C2772   1.387       .  A
C2767      H2774   1.082       .  S
C2768      C2769   1.415       .  A
C2769      C2770   1.387       .  A
C2769     Br2776   1.926       .  S
C2770      C2771   1.404       .  A
C2770      H2775   1.082       .  S
C2771      C2772   1.408       .  A
C2772     Br2773   1.923       .  S
C2777      H2784   1.083       .  S
C2778      C2779   1.411       .  A
C2779      C2780   1.395       .  A
C2779     Br2786   1.919       .  S
C2780      C2781   1.400       .  A
C2780      H2785   1.083       .  S
C2781      C2782   1.409       .  A
C2782     Br2783   1.918       .  S
C2787      C2788   1.402       .  A
C2787      C2792   1.389       .  A
C2787      H2794   1.082       .  S
C2788      C2789   1.406   1_554  A
C2789     Br2796   1.916       .  S
C2790      H2795   1.083       .  S
C2791      C2792   1.410       .  A
C2792     Br2793   1.923       .  S
C2797      C2798   1.399       .  A
C2797      C2802   1.386       .  A
C2797      H2804   1.082       .  S
C2798      C2799   1.415       .  A
C2799      C2800   1.389       .  A
C2799     Br2806   1.926       .  S
C2800      C2801   1.402       .  A
C2800      H2805   1.084       .  S
C2801      C2802   1.420       .  A
C2802     Br2803   1.928       .  S
C2807      C2808   1.405       .  A
C2807      C2812   1.384       .  A
C2807      H2814   1.081       .  S
C2808      C2809   1.415       .  A
C2809      C2810   1.382       .  A
C2809     Br2816   1.931       .  S
C2810      C2811   1.403       .  A
C2810      H2815   1.082       .  S
C2811      C2812   1.410       .  A
C2812     Br2813   1.925       .  S
C2817      C2818   1.404       .  A
C2817      C2822   1.403       .  A
C2817      H2824   1.083       .  S
C2818      C2819   1.412       .  A
C2819      C2820   1.402       .  A
C2819     Br2826   1.920       .  S
C2820      C2821   1.405       .  A
C2821      C2822   1.413       .  A
C2822     Br2823   1.919       .  S
C2827      C2828   1.404       .  A
C2827      C2832   1.403       .  A
C2827      H2834   1.083       .  S
C2828      C3237   1.418   1_554  A
C2829      C3236   1.418       .  A
C2829      C2830   1.403       .  A
C2829     Br2836   1.916       .  S
C2830      C3239   1.402       .  A
C2831      C3238   1.402   1_554  A
C2831      C2832   1.414       .  A
C2832     Br2833   1.916       .  S
C2837      C2838   1.403       .  A
C2837      C2842   1.388       .  A
C2837      H2844   1.083       .  S
C2838      C2839   1.413       .  A
C2839      C2840   1.385       .  A
C2839     Br2846   1.927       .  S
C2840      C2841   1.403       .  A
C2840      H2845   1.082       .  S
C2841      C2842   1.413       .  A
C2842     Br2843   1.925       .  S
C2847      C2848   1.400       .  A
C2847      C2852   1.387       .  A
C2847      H2854   1.079       .  S
C2848      C2849   1.425       .  A
C2849      C2850   1.386       .  A
C2849     Br2856   1.931       .  S
C2850      C2851   1.394       .  A
C2850      H2855   1.079       .  S
C2851      C2852   1.414       .  A
C2852     Br2853   1.927       .  S
C2857      C2859   1.536       .  S
C2857      C2861   1.556       .  S
C2857      C2860   1.537       .  S
C2857      C3246   1.500       .  S
C2858      C2862   1.551       .  S
C2858      C2864   1.565       .  S
C2858      C2863   1.534       .  S
C2858      C3256   1.503       .  S
C2859      C2867   1.387       .  A
C2860      C2871   1.387       .  A
C2861      C2875   1.384       .  A
C2862      C2865   1.389       .  A
C2863      C2869   1.381       .  A
C2864      C2872   1.404       .  A
C2865      H2878   1.082       .  S
N2866      C2867   1.359       .  A
N2866      C2963   1.443       .  S
C2867      H2868   1.082       .  S
C2869      H2879   1.082       .  S
C2869      N2870   1.357       .  A
C2871      H2877   1.082       .  S
C2872      H2874   1.081       .  S
C2872      N2873   1.367       .  A
N2873      C3106   1.458       .  S
C2875      H2876   1.082       .  S
C2880      C2882   1.545       .  S
C2880      C2884   1.537       .  S
C2880      C2883   1.529       .  S
C2880      C3259   1.501       .  S
C2881      C2885   1.531       .  S
C2881      C2887   1.536       .  S
C2881      C2886   1.548       .  S
C2881      C3249   1.502       .  S
C2882      C2890   1.386       .  A
C2882      C2885   1.388       .  A
C2883      C2894   1.379       .  A
C2883      C2886   1.382       .  A
C2884      C2898   1.370       .  A
C2884      C2887   1.386       .  A
C2885      C2888   1.370       .  A
C2886      C2892   1.386       .  A
C2887      C2895   1.383       .  A
C2888      H2901   1.083       .  S
C2888      N2889   1.353       .  A
N2889      C2890   1.357       .  A
N2889      C2989   1.424       .  S
C2890      H2891   1.080       .  S
C2892      H2902   1.081       .  S
C2892      N2893   1.361       .  A
N2893      C2894   1.357       .  A
C2894      H2900   1.083       .  S
C2895      H2897   1.083       .  S
C2895      N2896   1.357       .  A
N2896      C2898   1.352       .  A
N2896      C3140   1.427       .  S
C2898      H2899   1.082       .  S
C2903      C2905   1.518       .  S
C2903      C2907   1.510       .  S
C2903      C2906   1.539       .  S
C2903      C3219   1.502       .  S
C2904      C2908   1.564       .  S
C2904      C2910   1.548       .  S
C2904      C2909   1.522       .  S
C2904      C3209   1.505       .  S
C2905      C2913   1.363       .  A
C2906      C2917   1.379       .  A
C2907      C2921   1.369       .  A
C2908      C2911   1.409       .  A
C2909      C2915   1.372       .  A
C2910      C2918   1.398       .  A
C2911      H2924   1.082       .  S
N2912      C2913   1.344       .  A
N2912      C3096   1.442       .  S
C2913      H2914   1.083       .  S
C2915      H2925   1.083       .  S
N2916      C2917   1.350       .  A
C2917      H2923   1.082       .  S
C2918      H2920   1.082       .  S
N2919      C2921   1.343       .  A
N2919      C2959   1.435       .  S
C2921      H2922   1.083       .  S
C2926      C2928   1.537       .  S
C2926      C2930   1.525       .  S
C2926      C2929   1.543       .  S
C2926      C3206   1.506       .  S
C2927      C2931   1.543       .  S
C2927      C2933   1.525       .  S
C2927      C2932   1.540       .  S
C2927      C3216   1.500       .  S
C2928      C2936   1.379       .  A
C2928      C2931   1.406       .  A
C2929      C2940   1.380       .  A
C2929      C2932   1.389       .  A
C2930      C2944   1.378       .  A
C2930      C2933   1.379       .  A
C2931      C2934   1.389       .  A
C2932      C2938   1.378       .  A
C2933      C2941   1.379       .  A
C2934      H2947   1.082       .  S
C2934      N2935   1.347       .  A
N2935      C2936   1.347       .  A
N2935      C3133   1.424       .  S
C2936      H2937   1.083       .  S
C2938      H2948   1.082       .  S
C2938      N2939   1.355       .  A
N2939      C2940   1.358       .  A
C2940      H2946   1.082       .  S
C2941      H2943   1.082       .  S
C2941      N2942   1.351       .  A
N2942      C2944   1.355       .  A
N2942      C2985   1.429       .  S
C2944      H2945   1.083       .  S
O2949     Ni2955   1.911       .  S
O2951      H2974   0.967       .  S
O2951     Ni2967   1.957       .  S
C2952      N3010   1.447       .  S
C2952      O2969   1.293       .  A
C2952      O2961   1.282       .  A
O2953      C2959   1.275       .  A
O2954     Ni2972   1.957       .  S
Ni2955     O2958   1.929       .  S
Ni2955     O2960   1.955       .  S
C2956      O2966   1.301       .  A
C2956      C2988   1.569       .  S
O2957      C2963   1.286       .  A
O2960      C2962   1.272       .  A
O2961     Ni2972   1.926       .  S
C2962      O2968   1.299       .  A
C2962      C2982   1.563       .  S
O2965     Ni2972   1.909       .  S
O2966     Ni2967   2.029       .  S
Ni2967     O2971   1.935       .  S
C2970      N3063   1.439       .  S
C2970      O2971   1.278       .  A
O2975     Ni2981   1.916       .  S
O2975      C2996   1.273       .  A
O2976     Ni2999   1.913       .  S
O2977      H3000   0.967       .  S
O2977     Ni2981   1.903       .  S
O2977     Ni2993   1.933       .  S
C2978      N3033   1.423       .  S
C2978      O2995   1.283       .  A
C2978      O2987   1.279       .  A
O2979      C2985   1.270       .  A
O2980     Ni2998   1.939   1_545  S
Ni2981     O2984   1.915       .  S
Ni2981     O2986   1.944       .  S
C2982      O2992   1.303       .  A
O2983     Ni2999   1.929       .  S
O2983      C2989   1.283       .  A
O2986      C2988   1.271       .  A
O2987     Ni2998   1.912       .  S
C2988      O2994   1.304       .  A
H2990      O2991   0.967       .  S
O2991     Ni2998   1.907       .  S
O2992     Ni2993   2.039       .  S
Ni2993     O2997   1.917       .  S
C2996      N3086   1.431       .  S
C2996      O2997   1.277       .  A
C3001      C3169   1.500       .  S
C3002      C3006   1.539       .  S
C3002      C3008   1.561       .  S
C3002      C3007   1.543       .  S
C3002      C3176   1.502       .  S
C3003      C3006   1.378       .  A
C3004      C3007   1.377       .  A
C3005      C3008   1.391       .  A
C3006      C3009   1.390       .  A
C3007      C3013   1.390       .  A
C3008      C3016   1.390       .  A
C3009      H3022   1.082       .  S
C3009      N3010   1.361       .  A
C3011      H3012   1.082   1_554  S
C3013      H3023   1.082       .  S
C3013      N3014   1.363       .  A
N3014      C3236   1.449       .  S
C3015      H3021   1.082       .  S
C3016      H3018   1.082       .  S
C3016      N3017   1.364       .  A
N3017      C3100   1.460       .  S
C3019      H3020   1.081       .  S
C3024      C3026   1.531       .  S
C3024      C3028   1.538       .  S
C3024      C3027   1.544       .  S
C3024      C3179   1.503       .  S
C3025      C3029   1.543       .  S
C3025      C3031   1.540       .  S
C3025      C3030   1.528       .  S
C3025      C3166   1.501       .  S
C3026      C3034   1.370       .  A
C3026      C3029   1.387       .  A
C3027      C3038   1.384       .  A
C3027      C3030   1.380       .  A
C3028      C3042   1.384       .  A
C3028      C3031   1.389       .  A
C3029      C3032   1.385       .  A
C3030      C3036   1.379       .  A
C3031      C3039   1.370       .  A
C3032      H3045   1.081       .  S
C3032      N3033   1.357       .  A
N3033      C3034   1.354       .  A
C3034      H3035   1.083       .  S
C3036      H3046   1.083       .  S
C3036      N3037   1.357       .  A
N3037      C3038   1.360       .  A
N3037      C3226   1.443       .  S
C3038      H3044   1.082       .  S
C3039      H3041   1.082       .  S
C3039      N3040   1.354       .  A
N3040      C3042   1.357       .  A
N3040      C3129   1.429       .  S
C3042      H3043   1.082       .  S
C3047      C3049   1.547       .  S
C3047      C3051   1.552       .  S
C3047      C3050   1.533       .  S
C3047      C3156   1.507       .  S
C3048      C3052   1.519   1_556  S
C3048      C3054   1.533   1_556  S
C3048      C3053   1.544   1_556  S
C3048      C3149   1.509       .  S
C3049      C3057   1.401       .  A
C3050      C3061   1.366       .  A
C3051      C3065   1.404       .  A
C3052      C3055   1.365   1_554  A
C3053      C3059   1.381   1_554  A
C3054      C3062   1.373   1_554  A
C3055      H3068   1.083       .  S
N3056      C3057   1.366       .  A
N3056      C3107   1.443       .  S
C3057      H3058   1.082       .  S
C3059      H3069   1.081       .  S
N3060      C3061   1.351       .  A
N3060      C3196   1.430       .  S
C3061      H3067   1.082       .  S
C3062      H3064   1.083       .  S
N3063      C3065   1.355       .  A
C3065      H3066   1.082       .  S
C3070      C3072   1.538       .  S
C3070      C3074   1.534       .  S
C3070      C3073   1.538       .  S
C3070      C3146   1.504       .  S
C3071      C3075   1.530       .  S
C3071      C3077   1.530       .  S
C3071      C3076   1.545       .  S
C3071      C3159   1.506       .  S
C3072      C3080   1.388       .  A
C3072      C3075   1.395       .  A
C3073      C3084   1.375       .  A
C3073      C3076   1.390       .  A
C3074      C3088   1.382       .  A
C3074      C3077   1.388       .  A
C3075      C3078   1.375       .  A
C3076      C3082   1.384       .  A
C3077      C3085   1.378       .  A
C3078      H3091   1.083       .  S
C3078      N3079   1.349       .  A
N3079      C3080   1.352       .  A
N3079      C3122   1.424       .  S
C3080      H3081   1.082       .  S
C3082      H3092   1.082       .  S
C3082      N3083   1.358       .  A
N3083      C3084   1.351       .  A
N3083      C3189   1.434       .  S
C3084      H3090   1.082       .  S
C3085      H3087   1.083       .  S
C3085      N3086   1.355       .  A
N3086      C3088   1.353       .  A
C3088      H3089   1.082       .  S
O3093     Ni3099   1.938       .  S
O3093      C3114   1.269       .  A
O3094     Ni3117   1.941       .  S
O3094      C3103   1.277       .  A
O3095      H3118   0.967       .  S
O3095     Ni3099   1.913       .  S
O3095     Ni3111   1.911       .  S
C3096      O3105   1.281       .  A
O3097     Ni3116   1.937       .  S
O3097      C3103   1.270       .  A
O3098     Ni3116   1.913       .  S
O3098      C3100   1.269       .  A
Ni3099     O3102   1.919       .  S
Ni3099     O3104   1.913       .  S
O3101     Ni3117   1.937       .  S
O3101      C3107   1.281       .  A
C3103      C3132   1.494       .  S
O3105     Ni3116   1.920       .  S
C3106      O3112   1.280       .  A
H3108      O3109   0.966       .  S
O3109     Ni3117   1.914       .  S
O3109     Ni3116   1.910       .  S
O3110     Ni3111   1.978       .  S
Ni3111     O3115   1.937       .  S
Ni3111     O3113   1.935       .  S
O3112     Ni3117   1.972       .  S
C3114      O3115   1.275       .  A
C3114      C3126   1.491       .  S
O3119     Ni3125   1.903       .  S
O3119      C3140   1.264       .  A
O3120     Ni3143   1.924       .  S
O3120      C3129   1.269       .  A
O3121      H3144   0.967       .  S
O3121     Ni3125   1.898       .  S
O3121     Ni3143   1.893       .  S
O3121     Ni3137   1.920       .  S
C3122      O3139   1.279       .  A
C3122      O3131   1.282       .  A
O3123     Ni3142   1.905       .  S
O3123      C3129   1.264       .  A
O3124     Ni3142   1.907       .  S
O3124      C3126   1.263       .  A
Ni3125     O3128   1.925       .  S
Ni3125     O3130   1.909       .  S
C3126      O3136   1.278       .  A
O3127     Ni3143   1.921       .  S
O3127      C3133   1.282       .  A
O3128      C3133   1.282       .  A
O3130      C3132   1.264       .  A
O3131     Ni3142   1.928       .  S
C3132      O3138   1.279       .  A
H3134      O3135   0.965       .  S
O3135     Ni3143   1.927       .  S
O3135     Ni3137   1.897       .  S
O3135     Ni3142   1.898       .  S
O3136     Ni3137   1.959       .  S
Ni3137     O3141   1.916       .  S
Ni3137     O3139   1.917       .  S
O3138     Ni3143   1.963       .  S
C3140      O3141   1.266       .  A
C3145      C3146   1.408       .  A
C3145      C3150   1.387       .  A
C3145      H3152   1.083       .  S
C3146      C3147   1.409       .  A
C3147      C3148   1.382       .  A
C3147     Br3154   1.925       .  S
C3148      C3149   1.410       .  A
C3148      H3153   1.084       .  S
C3149      C3150   1.407       .  A
C3150     Br3151   1.917       .  S
C3155      C3156   1.403       .  A
C3155      C3160   1.388       .  A
C3155      H3162   1.081       .  S
C3156      C3157   1.415       .  A
C3157      C3158   1.388       .  A
C3157     Br3164   1.927       .  S
C3158      C3159   1.403       .  A
C3158      H3163   1.080       .  S
C3159      C3160   1.413       .  A
C3160     Br3161   1.924       .  S
C3165      C3166   1.397       .  A
C3165      C3170   1.385       .  A
C3165      H3172   1.080       .  S
C3166      C3167   1.413       .  A
C3167      C3168   1.386       .  A
C3167     Br3174   1.927       .  S
C3168      C3169   1.401       .  A
C3168      H3173   1.078       .  S
C3169      C3170   1.419       .  A
C3170     Br3171   1.930       .  S
C3175      C3176   1.405       .  A
C3175      C3180   1.387       .  A
C3175      H3182   1.082       .  S
C3176      C3177   1.415       .  A
C3177      C3178   1.387       .  A
C3177     Br3184   1.926       .  S
C3178      C3179   1.404       .  A
C3178      H3183   1.082       .  S
C3179      C3180   1.408       .  A
C3180     Br3181   1.923       .  S
C3185      H3192   1.083       .  S
C3186      C3187   1.411       .  A
C3187      C3188   1.395       .  A
C3187     Br3194   1.919       .  S
C3188      C3189   1.400       .  A
C3188      H3193   1.083       .  S
C3189      C3190   1.409       .  A
C3190     Br3191   1.918       .  S
C3195      C3196   1.402       .  A
C3195      C3200   1.389       .  A
C3195      H3202   1.082       .  S
C3196      C3197   1.406       .  A
C3197     Br3204   1.916       .  S
C3198      H3203   1.083       .  S
C3199      C3200   1.410       .  A
C3200     Br3201   1.923       .  S
C3205      C3206   1.399       .  A
C3205      C3210   1.386       .  A
C3205      H3212   1.082       .  S
C3206      C3207   1.415       .  A
C3207      C3208   1.389       .  A
C3207     Br3214   1.926       .  S
C3208      C3209   1.402       .  A
C3208      H3213   1.084       .  S
C3209      C3210   1.420       .  A
C3210     Br3211   1.928       .  S
C3215      C3216   1.405       .  A
C3215      C3220   1.384       .  A
C3215      H3222   1.081       .  S
C3216      C3217   1.415       .  A
C3217      C3218   1.382       .  A
C3217     Br3224   1.931       .  S
C3218      C3219   1.403       .  A
C3218      H3223   1.082       .  S
C3219      C3220   1.410       .  A
C3220     Br3221   1.925       .  S
C3225      C3226   1.404       .  A
C3225      C3230   1.403       .  A
C3225      H3232   1.083       .  S
C3226      C3227   1.412       .  A
C3227      C3228   1.402       .  A
C3227     Br3234   1.920       .  S
C3228      C3229   1.405       .  A
C3229      C3230   1.413       .  A
C3230     Br3231   1.919       .  S
C3235      C3236   1.404       .  A
C3235      C3240   1.403       .  A
C3235      H3242   1.083       .  S
C3237      C3238   1.403       .  A
C3237     Br3244   1.916       .  S
C3239      C3240   1.414       .  A
C3240     Br3241   1.916       .  S
C3245      C3246   1.403       .  A
C3245      C3250   1.388       .  A
C3245      H3252   1.083       .  S
C3246      C3247   1.413       .  A
C3247      C3248   1.385       .  A
C3247     Br3254   1.927       .  S
C3248      C3249   1.403       .  A
C3248      H3253   1.082       .  S
C3249      C3250   1.413       .  A
C3250     Br3251   1.925       .  S
C3255      C3256   1.400       .  A
C3255      C3260   1.387       .  A
C3255      H3262   1.079       .  S
C3256      C3257   1.425       .  A
C3257      C3258   1.386       .  A
C3257     Br3264   1.931       .  S
C3258      C3259   1.394       .  A
C3258      H3263   1.079       .  S
C3259      C3260   1.414       .  A
C3260     Br3261   1.927       .  S
