geometry optimzed in LAMMPS
_audit_creation_date              2020-11-30 
_audit_creation_method            'lammps2cif' 
_symmetry_space_group_name_H-M    'P1' 
_symmetry_Int_Tables_number       1 
_symmetry_cell_setting            triclinic 
loop_ 
_symmetry_equiv_pos_as_xyz 
  x,y,z 
_cell_length_a                    22.61853530555121 
_cell_length_b                    22.822602917623353 
_cell_length_c                    31.187652716825347 
_cell_angle_alpha                 89.9132449268238 
_cell_angle_beta                  89.87814460025047 
_cell_angle_gamma                 120.24417495252638 
loop_ 
_atom_site_label 
_atom_site_type_symbol 
_atom_site_fract_x 
_atom_site_fract_y 
_atom_site_fract_z 
_atom_site_charge 
C1          C  0.61367420  0.77946876  0.10662651     0.04550
C2          C  0.62292195  0.84298149  0.10877037     0.04550
C3          C  0.60953042  0.83074669  0.42994698     0.04550
C4          C  0.61445456  0.77387662  0.42602509     0.04550
C5          C  0.83959206  0.19849482  0.41141085     0.04550
C6          C  0.77528400  0.14644098  0.41979071     0.04550
C7          C  0.78324171  0.14566612  0.12060602     0.04550
C8          C  0.83442390  0.20906308  0.11097736     0.04550
C9          C  0.69262078  0.00620909  0.03859748     0.04550
C10         C  0.67426807  0.99148921  0.49552829     0.04550
C11         C  0.78690160  0.66262340  0.40779146     0.04550
C12         C  0.84043468  0.65257793  0.41462628     0.04550
C13         C  0.81217654  0.59259336  0.09711682     0.04550
C14         C  0.75354080  0.59519756  0.09871835     0.04550
C15         C  0.13376188  0.77519663  0.11072467     0.04550
C16         C  0.19174285  0.83679967  0.11160168     0.04550
C17         C  0.13295939  0.77629491  0.41351859     0.04550
C18         C  0.19602265  0.82829864  0.42386720     0.04550
C19         C  0.36134155  0.20942391  0.10887220     0.04550
C20         C  0.34906327  0.14535337  0.11522407     0.04550
C21         C  0.34621731  0.20234215  0.41809137     0.04550
C22         C  0.34750272  0.14349140  0.42032492     0.04550
C23         C  0.31549806  0.31467263  0.03599984     0.04550
C24         C  0.30817715  0.31367703  0.49172411     0.04550
C25         C  0.19410957  0.35224861  0.42317992     0.04550
C26         C  0.13453872  0.35287952  0.42213833     0.04550
C27         C  0.15202255  0.37674197  0.09862662     0.04550
C28         C  0.21324767  0.37922700  0.09969729     0.04550
C29         C  0.98011293  0.26678051  0.49716106     0.04550
C30         C  0.98737102  0.30034189  0.03380070     0.04550
C31         C  0.28973958  0.99598791  0.03932650     0.04550
C32         C  0.28797643  0.98488788  0.49364991     0.04550
C33         C  0.98161591  0.67011279  0.03633655     0.04550
C34         C  0.98612193  0.69316950  0.49445558     0.04550
C35         C  0.73070008  0.73853114  0.49850576     0.04550
C36         C  0.66340887  0.67630869  0.03530182     0.04550
O37         O  0.59733230  0.67205461  0.28637035    -0.76150
O38         O  0.38849542  0.33450778  0.28712040    -0.76180
O39         O  0.37360638  0.47390645  0.31752914    -0.76180
O40         O  0.59849875  0.50140776  0.31941461    -0.76130
O41         O  0.30551463  0.37533286  0.28577055    -0.76250
O42         O  0.64421796  0.59445477  0.28352901    -0.76170
O43         O  0.48390304  0.38599835  0.32100833    -0.76150
O44         O  0.49937904  0.60012082  0.31838412    -0.76190
C45         C  0.55648815  0.65701708  0.31784018     1.13540
C46         C  0.42456585  0.33637294  0.31787017     1.13420
C47         C  0.31826386  0.41518561  0.31705754     1.13560
C48         C  0.64565927  0.56161956  0.31483804     1.13440
O49         O  0.60790192  0.58486819  0.21419671    -0.76150
O50         O  0.36367496  0.40466619  0.20968150    -0.76230
O51         O  0.47961341  0.61707236  0.22458320    -0.76170
O52         O  0.49172831  0.36733153  0.22682183    -0.76150
O53         O  0.39470223  0.36959363  0.21505089    -0.76200
O54         O  0.57254312  0.61544263  0.20939869    -0.76160
O55         O  0.61231439  0.48951764  0.22550374    -0.76120
O56         O  0.36185297  0.49728813  0.22374695    -0.76190
Co57       Co  0.55388108  0.57981060  0.26781544     1.51530
Co58       Co  0.39875820  0.42218931  0.26827514     1.51690
Co59       Co  0.43486517  0.54104384  0.26971814     1.51570
Co60       Co  0.54297923  0.43939020  0.27187460     1.51470
O61         O  0.49073199  0.48797843  0.25340060    -1.38090
C62         C  0.62900466  0.54342374  0.20418616     1.13460
C63         C  0.34409453  0.44602144  0.20014878     1.13550
C64         C  0.53188697  0.63632698  0.20077657     1.13490
C65         C  0.43680104  0.34898326  0.20560382     1.13470
O66         O  0.60308045  0.93033598  0.24635203    -0.76150
O67         O  0.38405937  0.04663219  0.24405223    -0.76180
O68         O  0.37476467  0.89311719  0.21611055    -0.76180
O69         O  0.59822411  0.10131398  0.21488931    -0.76130
O70         O  0.30465747  0.92238905  0.24635188    -0.76250
O71         O  0.64621957  0.05381678  0.24810886    -0.76170
O72         O  0.48236356  0.09727092  0.21284611    -0.76150
O73         O  0.50275540  0.89818755  0.21588276    -0.76190
C74         C  0.56167174  0.90207017  0.21568996     1.13540
C75         C  0.42186043  0.08450673  0.21489848     1.13420
C76         C  0.31842054  0.89466179  0.21592846     1.13560
C77         C  0.64724805  0.09105140  0.21864114     1.13440
O78         O  0.60982582  0.02532545  0.31771932    -0.76150
O79         O  0.36144617  0.95441467  0.32239593    -0.76230
O80         O  0.48371350  0.86387746  0.31025813    -0.76170
O81         O  0.48566208  0.12036612  0.30644764    -0.76150
O82         O  0.38930915  0.01963648  0.31588286    -0.76200
O83         O  0.57631312  0.95956772  0.32309776    -0.76160
O84         O  0.60936136  0.12317647  0.30882245    -0.76120
O85         O  0.36388324  0.86157676  0.31097687    -0.76190
Co86       Co  0.55661135  0.97619443  0.26458337     1.51530
Co87       Co  0.39768464  0.97169339  0.26382035     1.51690
Co88       Co  0.43732051  0.89173482  0.26460480     1.51570
Co89       Co  0.54021676  0.10304183  0.26226609     1.51470
O90         O  0.49032697  0.00125746  0.27949654    -1.38090
C91         C  0.62913156  0.08702060  0.32846726     1.13460
C92         C  0.34398999  0.89460333  0.33347007     1.13550
C93         C  0.53643971  0.89836774  0.33310639     1.13490
C94         C  0.42905727  0.08246060  0.32567958     1.13470
O95         O  0.95904866  0.37209863  0.21320654    -0.76150
O96         O  0.00982560  0.61156215  0.21529391    -0.76180
O97         O  0.84969454  0.47905076  0.22042444    -0.76180
O98         O  0.11890010  0.50317707  0.21653710    -0.76130
O99         O  0.94295134  0.57737623  0.21118950    -0.76250
O100        O  0.02572761  0.40438672  0.20899033    -0.76170
O101        O  0.11052957  0.61715757  0.22594553    -0.76150
O102        O  0.85867219  0.36596491  0.22643770    -0.76190
C103        C  0.89614818  0.35064937  0.20406897     1.13540
C104        C  0.07292041  0.63451317  0.20561745     1.13420
C105        C  0.88297906  0.53376272  0.19934495     1.13560
C106        C  0.08526493  0.44798833  0.19615139     1.13440
O107        O  0.04372101  0.36849434  0.28474606    -0.76150
O108        O  0.92518069  0.61074618  0.28777750    -0.76230
O109        O  0.88842736  0.39292289  0.32056655    -0.76170
O110        O  0.08370849  0.58626269  0.31961540    -0.76150
O111        O  0.04695627  0.64474643  0.28746611    -0.76200
O112        O  0.92252560  0.33507999  0.28513867    -0.76160
O113        O  0.09161352  0.47273092  0.31091751    -0.76120
O114        O  0.87914358  0.50701595  0.31474525    -0.76190
Co115      Co  0.00418080  0.42080222  0.26749885     1.51530
Co116      Co  0.96524113  0.55977048  0.26913486     1.51690
Co117      Co  0.87882854  0.44020508  0.26916956     1.51570
Co118      Co  0.09141923  0.54091770  0.26692217     1.51470
O119        O  0.98486934  0.49078068  0.25148120    -1.38090
C120        C  0.07915709  0.41116624  0.31303888     1.13460
C121        C  0.89021721  0.56819910  0.31640548     1.13550
C122        C  0.89195221  0.34004632  0.31686542     1.13490
C123        C  0.07985732  0.63906113  0.31751092     1.13470
C124        C  0.05347929  0.35058058  0.05272877    -0.12450
C125        C  0.09743903  0.33272331  0.06785465    -0.27620
H126        H  0.05990330  0.39960257  0.06123711     0.16570
H127        H  0.08860419  0.28232565  0.06092359     0.17150
C128        C  0.13412285  0.41067946  0.13143441    -0.09290
C129        C  0.11435908  0.43243986  0.15993073    -0.10850
C130        C  0.29930760  0.43239966  0.16455491    -0.09290
C131        C  0.25999230  0.41277039  0.13495044    -0.10850
C132        C  0.09962051  0.38967819  0.35037206    -0.09290
C133        C  0.11458327  0.37293133  0.38330116    -0.10850
C134        C  0.04114040  0.27848145  0.47140781    -0.12450
C135        C  0.09040903  0.34109486  0.46007538    -0.27620
H136        H  0.03913821  0.23523346  0.45545966     0.16570
H137        H  0.08830530  0.38457499  0.47221919     0.17150
C138        C  0.23822860  0.37373254  0.38543355    -0.09290
C139        C  0.27425168  0.39255132  0.35396379    -0.10850
C140        C  0.29700650  0.35537613  0.06385496    -0.12450
C141        C  0.23273350  0.34360152  0.06733869    -0.27620
H142        H  0.33676808  0.39137172  0.08498073     0.16570
H143        H  0.19405781  0.30523770  0.04697647     0.17150
C144        C  0.21498309  0.32600865  0.46029274    -0.12450
C145        C  0.28145972  0.35341752  0.47034611    -0.27620
H146        H  0.17696934  0.27884094  0.47522889     0.16570
H147        H  0.31901726  0.39978995  0.45435916     0.17150
C148        C  0.31601241  0.09428766  0.45687241    -0.12450
C149        C  0.31980788  0.03735127  0.45939947    -0.27620
H150        H  0.28806433  0.10336845  0.48166264     0.16570
H151        H  0.34419223  0.02522747  0.43364677     0.17150
C152        C  0.34275810  0.28969308  0.46243322    -0.12450
C153        C  0.31542345  0.22402418  0.45235878    -0.27620
H154        H  0.38850113  0.32796734  0.44604587     0.16570
H155        H  0.26887366  0.18689837  0.46851735     0.17150
C156        C  0.38153025  0.12768004  0.38644515    -0.09290
C157        C  0.40673989  0.11031359  0.35881959    -0.10850
C158        C  0.37451656  0.24663288  0.38081148    -0.09290
C159        C  0.39708788  0.28555090  0.35093148    -0.10850
C160        C  0.37491946  0.12797728  0.15265000    -0.09290
C161        C  0.39560422  0.10961255  0.18237211    -0.10850
C162        C  0.30376211  0.08723932  0.08762540    -0.12450
C163        C  0.32836489  0.06740539  0.05490172    -0.27620
H164        H  0.25295447  0.05234347  0.10010458     0.16570
H165        H  0.37960072  0.10112039  0.04262514     0.17150
C166        C  0.35709717  0.29005968  0.05773626    -0.12450
C167        C  0.32888561  0.22642538  0.07301127    -0.27620
H168        H  0.40717068  0.32850660  0.06910554     0.16570
H169        H  0.27840418  0.18822167  0.06200986     0.17150
C170        C  0.39714799  0.26097020  0.14173249    -0.09290
C171        C  0.41931649  0.30201255  0.17051048    -0.10850
C172        C  0.06943014  0.76047292  0.43662125    -0.12450
C173        C  0.05677377  0.73238668  0.47576141    -0.27620
H174        H  0.02804310  0.75847817  0.41791268     0.16570
H175        H  0.09885721  0.73208585  0.49227079     0.17150
C176        C  0.20597364  0.88052201  0.45610490    -0.12450
C177        C  0.26496152  0.91533203  0.47793416    -0.27620
H178        H  0.16813689  0.89644994  0.45791524     0.16570
H179        H  0.30288974  0.89953135  0.47648074     0.17150
C180        C  0.25376041  0.84417924  0.39597370    -0.09290
C181        C  0.29793602  0.86396588  0.36894363    -0.10850
C182        C  0.10723788  0.68945606  0.35041320    -0.09290
C183        C  0.12307881  0.73075634  0.37852617    -0.10850
C184        C  0.23762874  0.85473568  0.14819558    -0.09320
C185        C  0.27448066  0.87116449  0.17914088    -0.10850
C186        C  0.04177951  0.69184208  0.06431378    -0.12450
C187        C  0.08025482  0.75620686  0.07740808    -0.27620
H188        H  0.04966709  0.65248861  0.07787995     0.16570
H189        H  0.06953131  0.79429017  0.06488008     0.17150
C190        C  0.27060869  0.94428465  0.07369794    -0.12450
C191        C  0.20999829  0.88662191  0.07569106    -0.27620
H192        H  0.30694232  0.95754945  0.09971659     0.16570
H193        H  0.17392669  0.87655421  0.05006807     0.17150
C194        C  0.11955693  0.72621408  0.14453991    -0.09290
C195        C  0.10195806  0.68412378  0.17233029    -0.10850
C196        C  0.86414430  0.62854782  0.06256748    -0.12450
C197        C  0.91677527  0.61793067  0.05638655    -0.27620
H198        H  0.86437168  0.67047090  0.04585785     0.16570
H199        H  0.91856618  0.57796738  0.07421251     0.17150
C200        C  0.73068860  0.62001222  0.06162015    -0.12450
C201        C  0.69660815  0.65358047  0.06779024    -0.27620
H202        H  0.74200884  0.60886995  0.03010556     0.16570
H203        H  0.69026849  0.66453814  0.10089969     0.17150
C204        C  0.67375195  0.55899419  0.16792443    -0.09290
C205        C  0.71055071  0.57334473  0.13692926    -0.10850
C206        C  0.85295027  0.54780629  0.16309592    -0.09290
C207        C  0.83159510  0.56535684  0.13322831    -0.10850
C208        C  0.73857884  0.62647803  0.37395787    -0.09290
C209        C  0.69696053  0.59497040  0.34679411    -0.10850
C210        C  0.89077965  0.68550012  0.45011022    -0.12450
C211        C  0.92824428  0.65856563  0.46405222    -0.27620
H212        H  0.89854200  0.73235651  0.46417338     0.16570
H213        H  0.91972166  0.61086418  0.45095781     0.17150
C214        C  0.77276742  0.70926738  0.43268071    -0.12450
C215        C  0.75908037  0.70098975  0.47479282    -0.27620
H216        H  0.76356343  0.74433856  0.41436647     0.16570
H217        H  0.76640880  0.66332477  0.49126405     0.17150
C218        C  0.85462123  0.61493872  0.38267265    -0.09290
C219        C  0.86841171  0.59024898  0.35298700    -0.10850
C220        C  0.76574578  0.08530858  0.09461860    -0.12450
C221        C  0.73483063  0.07572617  0.05653442    -0.27620
H222        H  0.76431500  0.04265082  0.11112244     0.16570
H223        H  0.73447735  0.11822474  0.04104699     0.17150
C224        C  0.88291978  0.22248301  0.07482134    -0.12450
C225        C  0.92822413  0.28586538  0.06167447    -0.27620
H226        H  0.88489854  0.18011112  0.06053984     0.16570
H227        H  0.92880947  0.32897001  0.07681492     0.17150
C228        C  0.74058765  0.13237445  0.15805334    -0.09290
C229        C  0.70045299  0.11641470  0.18717697    -0.10850
C230        C  0.84972457  0.26327528  0.14097087    -0.09290
C231        C  0.86722552  0.30476524  0.16900245    -0.10850
C232        C  0.72093627  0.13384643  0.38982548    -0.09290
C233        C  0.67732684  0.11615659  0.36276661    -0.10850
C234        C  0.69432510  0.04789039  0.46443370    -0.12450
C235        C  0.75938670  0.09608369  0.45534431    -0.27620
H236        H  0.65261303  0.04501505  0.44566681     0.16570
H237        H  0.80069674  0.09687635  0.47345612     0.17150
C238        C  0.90158645  0.21111219  0.43502961    -0.12450
C239        C  0.91094047  0.23066849  0.47618145    -0.27620
H240        H  0.94446775  0.21781424  0.41568063     0.16570
H241        H  0.86737166  0.22820580  0.49257075     0.17150
C242        C  0.85230766  0.24645530  0.37710332    -0.09290
C243        C  0.86729496  0.28892112  0.34963667    -0.10850
C244        C  0.64512824  0.88116760  0.46477398    -0.12450
C245        C  0.62447000  0.92415908  0.47769040    -0.27620
H246        H  0.69468268  0.89038346  0.47524022     0.16570
H247        H  0.57634737  0.91764651  0.46595376     0.17150
C248        C  0.70474467  0.77646914  0.47307521    -0.12450
C249        C  0.63904000  0.74644545  0.46068221    -0.27620
H250        H  0.74208477  0.82483448  0.45922980     0.16570
H251        H  0.60434787  0.69468434  0.47114294     0.17150
C252        C  0.55418383  0.86854416  0.36797977    -0.09290
C253        C  0.57682084  0.84906647  0.39624321    -0.10850
C254        C  0.57586827  0.70002073  0.35491033    -0.09290
C255        C  0.59161449  0.73342058  0.38727688    -0.10850
C256        C  0.59931706  0.86247186  0.14658776    -0.09290
C257        C  0.58229190  0.87972370  0.17860673    -0.10850
C258        C  0.65441354  0.95093418  0.07068920    -0.12450
C259        C  0.65881058  0.89443886  0.07376772    -0.27620
H260        H  0.62586719  0.96100538  0.09470622     0.16570
H261        H  0.68898471  0.88628650  0.05002523     0.17150
C262        C  0.65147643  0.76206593  0.07522140    -0.12450
C263        C  0.62160697  0.70209032  0.05529032    -0.27620
H264        H  0.70627522  0.79624268  0.07160451     0.16570
H265        H  0.56675616  0.66790888  0.05801197     0.17150
C266        C  0.54920734  0.68523918  0.16683425    -0.09290
C267        C  0.57475426  0.72841974  0.13931859    -0.10850
C268        C  0.60742087  0.77436930  0.60487860     0.04550
C269        C  0.61868562  0.83867232  0.60824596     0.04550
C270        C  0.60450387  0.83561997  0.93122334     0.04550
C271        C  0.60888320  0.77875555  0.92710033     0.04550
C272        C  0.83865738  0.20150629  0.90984535     0.04550
C273        C  0.77481805  0.14894706  0.91866128     0.04550
C274        C  0.77804387  0.14305031  0.62001842     0.04550
C275        C  0.83103111  0.20599773  0.61147801     0.04550
C276        C  0.68902311  0.00178803  0.53816750     0.04550
C277        C  0.67540438  0.99690315  0.99635752     0.04550
C278        C  0.77556682  0.63667953  0.91793841     0.04550
C279        C  0.83968106  0.64634443  0.91542295     0.04550
C280        C  0.81223484  0.60356039  0.59964676     0.04550
C281        C  0.75535286  0.60894631  0.60418521     0.04550
C282        C  0.13610876  0.77610632  0.60685729     0.04550
C283        C  0.19415085  0.83798243  0.60745673     0.04550
C284        C  0.12972878  0.77537377  0.91172164     0.04550
C285        C  0.19224901  0.82735087  0.92331660     0.04550
C286        C  0.36850211  0.21181720  0.60436880     0.04550
C287        C  0.35136242  0.14703807  0.61370055     0.04550
C288        C  0.34232897  0.19649645  0.92160897     0.04550
C289        C  0.34373136  0.13783802  0.92376020     0.04550
C290        C  0.31800231  0.31562148  0.53469442     0.04550
C291        C  0.30809058  0.31286202  0.99273605     0.04550
C292        C  0.19978024  0.35891235  0.92262140     0.04550
C293        C  0.13900076  0.35730233  0.92099733     0.04550
C294        C  0.15187140  0.36950951  0.60123566     0.04550
C295        C  0.21187737  0.36957961  0.60352008     0.04550
C296        C  0.98093544  0.27132704  0.99446738     0.04550
C297        C  0.98679544  0.29571310  0.53648823     0.04550
C298        C  0.29185229  0.99977184  0.53632778     0.04550
C299        C  0.28264327  0.97964375  0.99674353     0.04550
C300        C  0.97728007  0.67215017  0.53604358     0.04550
C301        C  0.98644516  0.69267075  0.99525711     0.04550
C302        C  0.66186934  0.66853644  0.99189840     0.04550
C303        C  0.73096822  0.74022100  0.54218245     0.04550
O304        O  0.60455272  0.67242840  0.79253058    -0.76150
O305        O  0.36349772  0.30942836  0.78682464    -0.76180
O306        O  0.38591927  0.49016064  0.82253568    -0.76180
O307        O  0.58106214  0.49136201  0.82410793    -0.76130
O308        O  0.32806023  0.39530417  0.78984507    -0.76250
O309        O  0.64037664  0.58672940  0.79195312    -0.76170
O310        O  0.46764143  0.36785545  0.81430288    -0.76150
O311        O  0.49681741  0.61482105  0.81455282    -0.76190
C312        C  0.55822122  0.66508499  0.81825503     1.13540
C313        C  0.40628614  0.31666584  0.81514944     1.13420
C314        C  0.33411694  0.43198565  0.82106467     1.13560
C315        C  0.63395626  0.54884864  0.82255420     1.13440
O316        O  0.60792360  0.59044768  0.71932799    -0.76150
O317        O  0.36383306  0.39548472  0.71582048    -0.76230
O318        O  0.47115627  0.61121501  0.72017053    -0.76170
O319        O  0.49994194  0.37365345  0.72038669    -0.76150
O320        O  0.39985438  0.36540090  0.71160679    -0.76200
O321        O  0.57335322  0.62256289  0.71562110    -0.76160
O322        O  0.61352039  0.49638233  0.73019147    -0.76120
O323        O  0.35611759  0.48780929  0.72838273    -0.76190
Co324      Co  0.55444006  0.58136072  0.77321160     1.51530
Co325      Co  0.41452971  0.40179599  0.77024679     1.51690
Co326      Co  0.43167732  0.54509296  0.77002808     1.51570
Co327      Co  0.53648375  0.43819176  0.77093698     1.51470
O328        O  0.48494776  0.49235773  0.75472624    -1.38090
C329        C  0.63019407  0.55042402  0.70919386     1.13460
C330        C  0.34045573  0.43485808  0.70661772     1.13550
C331        C  0.52887526  0.63611463  0.70160879     1.13490
C332        C  0.44488124  0.35143365  0.69931919     1.13470
O333        O  0.60003491  0.92982734  0.74577267    -0.76150
O334        O  0.38063259  0.04693121  0.74397193    -0.76180
O335        O  0.37245200  0.89289627  0.71488451    -0.76180
O336        O  0.59481264  0.10245243  0.71537223    -0.76130
O337        O  0.30174126  0.92241414  0.74402927    -0.76250
O338        O  0.64229671  0.05340086  0.74745952    -0.76170
O339        O  0.47961573  0.09881975  0.71377345    -0.76150
O340        O  0.49947181  0.89608735  0.71544468    -0.76190
C341        C  0.55858925  0.90027209  0.71534052     1.13540
C342        C  0.41911049  0.08593631  0.71548941     1.13420
C343        C  0.31647173  0.89502715  0.71382967     1.13560
C344        C  0.64316325  0.09104084  0.71834514     1.13440
O345        O  0.60733375  0.02498311  0.81686391    -0.76150
O346        O  0.35658529  0.95302080  0.82083071    -0.76230
O347        O  0.47905617  0.86371090  0.81028706    -0.76170
O348        O  0.48183865  0.11881303  0.80790180    -0.76150
O349        O  0.38478952  0.01803747  0.81511064    -0.76200
O350        O  0.57220579  0.95942124  0.82235155    -0.76160
O351        O  0.60595139  0.12250196  0.80932079    -0.76120
O352        O  0.35954820  0.86045971  0.80996904    -0.76190
Co353      Co  0.55309867  0.97553989  0.76381546     1.51530
Co354      Co  0.39427116  0.97152362  0.76253763     1.51690
Co355      Co  0.43368093  0.89090747  0.76391845     1.51570
Co356      Co  0.53676813  0.10302756  0.76305980     1.51470
O357        O  0.48666035  0.00054553  0.77890107    -1.38090
C358        C  0.62658179  0.08649689  0.82813417     1.13460
C359        C  0.33947504  0.89349159  0.83227644     1.13550
C360        C  0.53144403  0.89888056  0.83316249     1.13490
C361        C  0.42468770  0.08016689  0.82638823     1.13470
O362        O  0.95870945  0.37176112  0.71252482    -0.76150
O363        O  0.01282148  0.61276402  0.71102997    -0.76180
O364        O  0.85170544  0.48238425  0.71779972    -0.76180
O365        O  0.11963790  0.50221349  0.71501424    -0.76130
O366        O  0.94586821  0.57941394  0.70713966    -0.76250
O367        O  0.02574475  0.40358474  0.70845159    -0.76170
O368        O  0.11298978  0.61774073  0.72263177    -0.76150
O369        O  0.85922600  0.36804666  0.72494729    -0.76190
C370        C  0.89587115  0.35074220  0.70330752     1.13540
C371        C  0.07595450  0.63527459  0.70174244     1.13420
C372        C  0.88506894  0.53661482  0.69625213     1.13560
C373        C  0.08560103  0.44617873  0.69556399     1.13440
O374        O  0.04318379  0.36960015  0.78477806    -0.76150
O375        O  0.92931190  0.61550718  0.78297339    -0.76230
O376        O  0.88924614  0.39683533  0.81883726    -0.76170
O377        O  0.08558884  0.58876372  0.81660142    -0.76150
O378        O  0.05040098  0.64763598  0.78333499    -0.76200
O379        O  0.92236831  0.33732810  0.78440984    -0.76160
O380        O  0.09320402  0.47483741  0.80934012    -0.76120
O381        O  0.88279867  0.51269255  0.81150500    -0.76190
Co382      Co  0.00449783  0.42217196  0.76635904     1.51530
Co383      Co  0.96810141  0.56284674  0.76534557     1.51690
Co384      Co  0.88060910  0.44376812  0.76685356     1.51570
Co385      Co  0.09299968  0.54206642  0.76450235     1.51470
O386        O  0.98646844  0.49246711  0.74894693    -1.38090
C387        C  0.08021004  0.41314672  0.81220086     1.13460
C388        C  0.89454438  0.57419501  0.81220008     1.13550
C389        C  0.89159301  0.34323856  0.81566066     1.13490
C390        C  0.08213386  0.64173366  0.81400885     1.13470
C391        C  0.05323344  0.34540016  0.55555068    -0.12450
C392        C  0.09788717  0.32744874  0.56940697    -0.27620
H393        H  0.05919912  0.39372768  0.56538928     0.16570
H394        H  0.08936572  0.27761828  0.56108685     0.17150
C395        C  0.13466511  0.40480660  0.63334343    -0.09290
C396        C  0.11486439  0.42838442  0.66061190    -0.10850
C397        C  0.29427757  0.41755917  0.67106821    -0.09290
C398        C  0.25652908  0.39895801  0.64048927    -0.10850
C399        C  0.10241061  0.39276248  0.84930253    -0.09290
C400        C  0.11877518  0.37680700  0.88202845    -0.10850
C401        C  0.04192865  0.28264293  0.96842166    -0.12450
C402        C  0.09415765  0.34486423  0.95884878    -0.27620
H403        H  0.03826038  0.23962397  0.95117143     0.16570
H404        H  0.09488646  0.38896979  0.97241829     0.17150
C405        C  0.24632200  0.38436577  0.88588655    -0.09290
C406        C  0.28555404  0.40628059  0.85587116    -0.10850
C407        C  0.29787549  0.35328725  0.56419192    -0.12450
C408        C  0.23245251  0.33663730  0.56994110    -0.27620
H409        H  0.33755299  0.39083701  0.58472228     0.16570
H410        H  0.19401579  0.29718580  0.54996759     0.17150
C411        C  0.21886354  0.32994604  0.95921772    -0.12450
C412        C  0.28478123  0.35453851  0.96989708    -0.27620
H413        H  0.17928665  0.28322689  0.97376610     0.16570
H414        H  0.32420336  0.40039073  0.95438519     0.17150
C415        C  0.31301919  0.08948786  0.96050746    -0.12450
C416        C  0.31387236  0.03110473  0.96207323    -0.27620
H417        H  0.28749420  0.10021191  0.98607621     0.16570
H418        H  0.33520022  0.01723135  0.93538601     0.17150
C419        C  0.34184040  0.28642920  0.96466789    -0.12450
C420        C  0.31401133  0.22008887  0.95635439    -0.27620
H421        H  0.38635206  0.32339114  0.94665186     0.16570
H422        H  0.26837976  0.18403804  0.97376281     0.17150
C423        C  0.37688429  0.12163486  0.88935243    -0.09290
C424        C  0.40209579  0.10588808  0.86076380    -0.10850
C425        C  0.36652546  0.23772066  0.88311066    -0.09290
C426        C  0.38479349  0.27186980  0.85114262    -0.10850
C427        C  0.37468642  0.13034737  0.65253130    -0.09290
C428        C  0.39367604  0.11173076  0.68295793    -0.10850
C429        C  0.30537687  0.08794066  0.58719708    -0.12450
C430        C  0.32824484  0.07099633  0.55227005    -0.27620
H431        H  0.25745126  0.05031914  0.60190845     0.16570
H432        H  0.37718106  0.10747541  0.53812740     0.17150
C433        C  0.36202797  0.29250252  0.55449045    -0.12450
C434        C  0.33602946  0.22833620  0.56832726    -0.27620
H435        H  0.41138949  0.33189249  0.56618948     0.16570
H436        H  0.28606694  0.18954974  0.55694167     0.17150
C437        C  0.40773734  0.26521651  0.63531087    -0.09290
C438        C  0.43067844  0.30742951  0.66321244    -0.10850
C439        C  0.06461531  0.75634806  0.93411935    -0.12450
C440        C  0.05565815  0.73863789  0.97566510    -0.27620
H441        H  0.02040761  0.74195173  0.91390307     0.16570
H442        H  0.10120487  0.75073068  0.99382615     0.17150
C443        C  0.20081217  0.87884048  0.95578312    -0.12450
C444        C  0.25639471  0.90915782  0.98121317    -0.27620
H445        H  0.16631806  0.89892846  0.95432269     0.16570
H446        H  0.29050780  0.88875111  0.98325355     0.17150
C447        C  0.25083555  0.84464225  0.89582570    -0.09290
C448        C  0.29429414  0.86368919  0.86831104    -0.10850
C449        C  0.10793332  0.69165289  0.84724293    -0.09290
C450        C  0.12205984  0.73181714  0.87590344    -0.10850
C451        C  0.23915052  0.85648657  0.64453063    -0.09320
C452        C  0.27428056  0.87254696  0.67625877    -0.10850
C453        C  0.03532254  0.69181929  0.56571173    -0.12450
C454        C  0.08150439  0.75689805  0.57407186    -0.27620
H455        H  0.03657916  0.65124520  0.58312372     0.16570
H456        H  0.07606991  0.79590285  0.55780468     0.17150
C457        C  0.27252787  0.94710935  0.57038769    -0.12450
C458        C  0.21289284  0.88806257  0.57144758    -0.27620
H459        H  0.30768698  0.96093150  0.59712347     0.16570
H460        H  0.17803298  0.87734344  0.54509112     0.17150
C461        C  0.12306341  0.72728382  0.64074527    -0.09290
C462        C  0.10572368  0.68499331  0.66845844    -0.10850
C463        C  0.86241754  0.63815761  0.56396981    -0.12450
C464        C  0.91018015  0.62164582  0.55438423    -0.27620
H465        H  0.86655727  0.68344085  0.54961947     0.16570
H466        H  0.90762297  0.57745471  0.56939071     0.17150
C467        C  0.73320617  0.64080536  0.57146825    -0.12450
C468        C  0.76159158  0.70840262  0.56887259    -0.27620
H469        H  0.68767386  0.60819848  0.55291797     0.16570
H470        H  0.80243496  0.74045076  0.59080503     0.17150
C471        C  0.67592145  0.56770975  0.67330640    -0.09290
C472        C  0.71252148  0.58411863  0.64211825    -0.10850
C473        C  0.85368227  0.55186670  0.66127710    -0.09290
C474        C  0.83132935  0.57192144  0.63332908    -0.10850
C475        C  0.72560072  0.59988507  0.88445266    -0.09290
C476        C  0.68354487  0.57341068  0.85647076    -0.10850
C477        C  0.89242198  0.68347344  0.94883461    -0.12450
C478        C  0.92661779  0.65545274  0.96628065    -0.27620
H479        H  0.90431862  0.73403231  0.95836077     0.16570
H480        H  0.91211570  0.60370192  0.95808178     0.17150
C481        C  0.75439882  0.66609126  0.95297739    -0.12450
C482        C  0.69055977  0.63247338  0.96885389    -0.27620
H483        H  0.78954921  0.71744626  0.96371001     0.16570
H484        H  0.65498073  0.58129375  0.95807931     0.17150
C485        C  0.85870577  0.61938237  0.87927864    -0.09290
C486        C  0.87365739  0.59776936  0.84846502    -0.10850
C487        C  0.76069445  0.08234563  0.59423574    -0.12450
C488        C  0.72963090  0.07172141  0.55606587    -0.27620
H489        H  0.76014631  0.04023864  0.61091747     0.16570
H490        H  0.72841001  0.11355216  0.54026850     0.17150
C491        C  0.88047619  0.21886803  0.57610695    -0.12450
C492        C  0.92762833  0.28215777  0.56393125    -0.27620
H493        H  0.88137463  0.17609362  0.56156299     0.16570
H494        H  0.92917750  0.32556694  0.57930072     0.17150
C495        C  0.73492285  0.13033802  0.65705256    -0.09290
C496        C  0.69534121  0.11545271  0.68634408    -0.10850
C497        C  0.84697739  0.26023954  0.64175059    -0.09290
C498        C  0.86579587  0.30292488  0.66917696    -0.10850
C499        C  0.71979645  0.13461494  0.88880928    -0.09290
C500        C  0.67550694  0.11568459  0.86209808    -0.10850
C501        C  0.69507466  0.05365118  0.96566406    -0.12450
C502        C  0.76002927  0.09945527  0.95454223    -0.27620
H503        H  0.65281688  0.05263381  0.94859133     0.16570
H504        H  0.80184985  0.09879877  0.97110711     0.17150
C505        C  0.90153623  0.21511756  0.93279049    -0.12450
C506        C  0.91132178  0.23376446  0.97410122    -0.27620
H507        H  0.94451156  0.22367413  0.91284191     0.16570
H508        H  0.86749657  0.22961716  0.99114376     0.17150
C509        C  0.85013758  0.24933689  0.87571407    -0.09290
C510        C  0.86545865  0.29217424  0.84846904    -0.10850
C511        C  0.64396294  0.88753495  0.96436790    -0.12450
C512        C  0.62417025  0.93020000  0.97893183    -0.27620
H513        H  0.69492413  0.89741920  0.97227757     0.16570
H514        H  0.57488874  0.92335815  0.96948055     0.17150
C515        C  0.62479852  0.69085409  0.96313114    -0.12450
C516        C  0.63894493  0.75554227  0.96110788    -0.27620
H517        H  0.59110777  0.65438125  0.93954591     0.16570
H518        H  0.67406281  0.79140424  0.98433210     0.17150
C519        C  0.54774929  0.87073193  0.86928561    -0.09290
C520        C  0.57047203  0.85310789  0.89830026    -0.10850
C521        C  0.57469419  0.70874713  0.85456387    -0.09290
C522        C  0.58799654  0.74083887  0.88726633    -0.10850
C523        C  0.59643786  0.85861732  0.64677535    -0.09290
C524        C  0.57939104  0.87669742  0.67860614    -0.10850
C525        C  0.65037534  0.94674714  0.57028817    -0.12450
C526        C  0.65453936  0.89020634  0.57341097    -0.27620
H527        H  0.62173097  0.95686101  0.59421066     0.16570
H528        H  0.68522990  0.88235361  0.55000670     0.17150
C529        C  0.63591970  0.75223605  0.56982774    -0.12450
C530        C  0.70360598  0.77690391  0.56668095    -0.27620
H531        H  0.60109366  0.70658386  0.55234789     0.16570
H532        H  0.73790991  0.81658038  0.58848121     0.17150
C533        C  0.54624086  0.68167892  0.66586331    -0.09290
C534        C  0.57040763  0.72365017  0.63769016    -0.10850
loop_ 
_geom_bond_atom_site_label_1 
_geom_bond_atom_site_label_2 
_geom_bond_distance 
_geom_bond_site_symmetry_2 
_ccdc_geom_bond_type 
C1            C2   1.358       .  D
C1          C262   1.479       .  S
C1          C267   1.460       .  S
C2          C259   1.504       .  S
C2          C256   1.453       .  S
C3            C4   1.363       .  D
C3          C244   1.492       .  S
C3          C253   1.463       .  S
C4          C249   1.490       .  S
C4          C255   1.451       .  S
C5            C6   1.361       .  D
C5          C238   1.480       .  S
C5          C242   1.450       .  S
C6          C235   1.503       .  S
C6          C232   1.455       .  S
C7            C8   1.354       .  D
C7          C220   1.472       .  S
C7          C228   1.444       .  S
C8          C224   1.491       .  S
C8          C230   1.449       .  S
C9          C277   1.361   1_544  D
C9          C221   1.490       .  S
C9          C258   1.495   1_545  S
C10         C276   1.363   1_565  D
C10         C234   1.486   1_565  S
C10         C245   1.484       .  S
C11          C12   1.358       .  D
C11         C214   1.477       .  S
C11         C208   1.445       .  S
C12         C210   1.494       .  S
C12         C218   1.454       .  S
C13          C14   1.358       .  D
C13         C196   1.495       .  S
C13         C207   1.457       .  S
C14         C200   1.491       .  S
C14         C205   1.456       .  S
C15          C16   1.357       .  D
C15         C187   1.487       .  S
C15         C194   1.449       .  S
C16         C191   1.496       .  S
C16         C184   1.458       .  S
C17          C18   1.358       .  D
C17         C172   1.479       .  S
C17         C183   1.446       .  S
C18         C176   1.489       .  S
C18         C180   1.453       .  S
C19          C20   1.358       .  D
C19         C167   1.493       .  S
C19         C170   1.462       .  S
C20         C162   1.479       .  S
C20         C160   1.448       .  S
C21          C22   1.360       .  D
C21         C153   1.489       .  S
C21         C158   1.458       .  S
C22         C148   1.501       .  S
C22         C156   1.455       .  S
C23         C291   1.358   1_554  D
C23         C140   1.478       .  S
C23         C166   1.481       .  S
C24         C290   1.356       .  D
C24         C145   1.478       .  S
C24         C152   1.475       .  S
C25          C26   1.355       .  D
C25         C144   1.485       .  S
C25         C138   1.457       .  S
C26         C135   1.481       .  S
C26         C133   1.445       .  S
C27          C28   1.358       .  D
C27         C125   1.488       .  S
C27         C128   1.459       .  S
C28         C141   1.495       .  S
C28         C131   1.451       .  S
C29         C297   1.366       .  D
C29         C134   1.498   1_655  S
C29         C239   1.504       .  S
C30         C296   1.368   1_554  D
C30         C124   1.476   1_655  S
C30         C225   1.484       .  S
C31         C299   1.368   1_554  D
C31         C163   1.492   1_565  S
C31         C190   1.486       .  S
C32         C298   1.366       .  D
C32         C149   1.489   1_565  S
C32         C177   1.484       .  S
C33         C301   1.364   1_554  D
C33         C186   1.478   1_655  S
C33         C197   1.481       .  S
C34         C300   1.361       .  D
C34         C173   1.499   1_655  S
C34         C211   1.484       .  S
C35         C303   1.363       .  D
C35         C215   1.499       .  S
C35         C248   1.495       .  S
C36         C302   1.364   1_554  D
C36         C201   1.501       .  S
C36         C263   1.479       .  S
O37          C45   1.269       .  A
O37         Co57   1.912       .  S
O38          C46   1.247       .  A
O38         Co58   1.983       .  S
O39          C47   1.294       .  A
O39         Co59   2.082       .  S
O40          C48   1.252       .  A
O40         Co60   2.001       .  S
O41          C47   1.266       .  A
O41         Co58   1.900       .  S
O42          C48   1.240       .  A
O42         Co57   1.961       .  S
O43          C46   1.250       .  A
O43         Co60   1.991       .  S
O44          C45   1.290       .  A
O44         Co59   2.070       .  S
C45         C254   1.437       .  S
C46         C159   1.436       .  S
C47         C139   1.435       .  S
C48         C209   1.427       .  S
O49          C62   1.294       .  A
O49         Co57   2.037       .  S
O50          C63   1.263       .  A
O50         Co58   1.954       .  S
O51          C64   1.271       .  A
O51         Co59   2.058       .  S
O52          C65   1.279       .  A
O52         Co60   2.029       .  S
O53          C65   1.290       .  A
O53         Co58   2.025       .  S
O54          C64   1.260       .  A
O54         Co57   1.951       .  S
O55          C62   1.275       .  A
O55         Co60   2.009       .  S
O56          C63   1.266       .  A
O56         Co59   2.033       .  S
Co57         O61   1.904       .  S
Co58         O61   1.909       .  S
Co59         O61   2.205       .  S
Co60         O61   2.069       .  S
C62         C204   1.436       .  S
C63         C130   1.430       .  S
C64         C266   1.440       .  S
C65         C171   1.443       .  S
O66          C74   1.267       .  A
O66         Co86   1.905       .  S
O67          C75   1.247       .  A
O67         Co87   1.982   1_545  S
O68          C76   1.293       .  A
O68         Co88   2.084       .  S
O69          C77   1.249       .  A
O69         Co89   1.988       .  S
O70          C76   1.264       .  A
O70         Co87   1.901       .  S
O71          C77   1.243       .  A
O71         Co86   1.971   1_545  S
O72          C75   1.249       .  A
O72         Co89   1.985       .  S
O73          C74   1.290       .  A
O73         Co88   2.072       .  S
C74         C257   1.433       .  S
C75         C161   1.433       .  S
C76         C185   1.436       .  S
C77         C229   1.427       .  S
O78          C91   1.292       .  A
O78         Co86   2.027   1_545  S
O79          C92   1.262       .  A
O79         Co87   1.957       .  S
O80          C93   1.269       .  A
O80         Co88   2.051       .  S
O81          C94   1.275       .  A
O81         Co89   2.016       .  S
O82          C94   1.289       .  A
O82         Co87   2.021   1_545  S
O83          C93   1.261       .  A
O83         Co86   1.961       .  S
O84          C91   1.276       .  A
O84         Co89   2.013       .  S
O85          C92   1.267       .  A
O85         Co88   2.039       .  S
Co86         O90   1.911   1_565  S
Co87         O90   1.915   1_565  S
Co88         O90   2.211   1_565  S
Co89         O90   2.076       .  S
C91         C233   1.432       .  S
C92         C181   1.434       .  S
C93         C252   1.443       .  S
C94         C157   1.432       .  S
O95         C103   1.283       .  A
O95        Co115   2.004   1_655  S
O96         C104   1.283       .  A
O96        Co116   2.005   1_455  S
O97         C105   1.268       .  A
O97        Co117   2.030       .  S
O98         C106   1.268       .  A
O98        Co118   2.034       .  S
O99         C105   1.269       .  A
O99        Co116   1.972       .  S
O100        C106   1.269       .  A
O100       Co115   1.972       .  S
O101        C104   1.274       .  A
O101       Co118   2.020       .  S
O102        C103   1.274       .  A
O102       Co117   2.021       .  S
C103        C231   1.427       .  S
C104        C195   1.427       .  S
C105        C206   1.437       .  S
C106        C129   1.438       .  S
O107        C120   1.260       .  A
O107       Co115   1.895       .  S
O108        C121   1.259       .  A
O108       Co116   1.891       .  S
O109        C122   1.254       .  A
O109       Co117   2.003       .  S
O110        C123   1.253       .  A
O110       Co118   1.997       .  S
O111        C123   1.244       .  A
O111       Co116   1.975   1_455  S
O112        C122   1.244       .  A
O112       Co115   1.973   1_655  S
O113        C120   1.288       .  A
O113       Co118   2.075       .  S
O114        C121   1.290       .  A
O114       Co117   2.084       .  S
Co115       O119   1.922   1_455  S
Co116       O119   1.920       .  S
Co117       O119   2.143       .  S
Co118       O119   2.140   1_455  S
C120        C132   1.428       .  S
C121        C219   1.431       .  S
C122        C243   1.434       .  S
C123        C182   1.431       .  S
C124        C125   1.337       .  D
C124        H126   1.087       .  S
C125        H127   1.086       .  S
C128        C129   1.208       .  T
C130        C131   1.203       .  T
C132        C133   1.202       .  T
C134        C135   1.342       .  D
C134        H136   1.086       .  S
C135        H137   1.086       .  S
C138        C139   1.206       .  T
C140        C141   1.343       .  D
C140        H142   1.085       .  S
C141        H143   1.081       .  S
C144        C145   1.344       .  D
C144        H146   1.086       .  S
C145        H147   1.087       .  S
C148        C149   1.347       .  D
C148        H150   1.082       .  S
C149        H151   1.086       .  S
C152        C153   1.340       .  D
C152        H154   1.087       .  S
C153        H155   1.085       .  S
C156        C157   1.205       .  T
C158        C159   1.207       .  T
C160        C161   1.205       .  T
C162        C163   1.345       .  D
C162        H164   1.087       .  S
C163        H165   1.087       .  S
C166        C167   1.344       .  D
C166        H168   1.086       .  S
C167        H169   1.087       .  S
C170        C171   1.211       .  T
C172        C173   1.339       .  D
C172        H174   1.085       .  S
C173        H175   1.086       .  S
C176        C177   1.346       .  D
C176        H178   1.087       .  S
C177        H179   1.086       .  S
C180        C181   1.206       .  T
C182        C183   1.204       .  T
C184        C185   1.207       .  T
C186        C187   1.341       .  D
C186        H188   1.085       .  S
C187        H189   1.086       .  S
C190        C191   1.341       .  D
C190        H192   1.086       .  S
C191        H193   1.082       .  S
C194        C195   1.201       .  T
C196        C197   1.343       .  D
C196        H198   1.087       .  S
C197        H199   1.086       .  S
C200        C201   1.346       .  D
C200        H202   1.078       .  S
C201        H203   1.089       .  S
C204        C205   1.206       .  T
C206        C207   1.207       .  T
C208        C209   1.202       .  T
C210        C211   1.346       .  D
C210        H212   1.086       .  S
C211        H213   1.086       .  S
C214        C215   1.340       .  D
C214        H216   1.085       .  S
C215        H217   1.083       .  S
C218        C219   1.204       .  T
C220        C221   1.341       .  D
C220        H222   1.086       .  S
C221        H223   1.087       .  S
C224        C225   1.347       .  D
C224        H226   1.086       .  S
C225        H227   1.086       .  S
C228        C229   1.202       .  T
C230        C231   1.202       .  T
C232        C233   1.205       .  T
C234        C235   1.350       .  D
C234        H236   1.085       .  S
C235        H237   1.085       .  S
C238        C239   1.341       .  D
C238        H240   1.084       .  S
C239        H241   1.085       .  S
C242        C243   1.206       .  T
C244        C245   1.344       .  D
C244        H246   1.082       .  S
C245        H247   1.086       .  S
C248        C249   1.343       .  D
C248        H250   1.084       .  S
C249        H251   1.087       .  S
C252        C253   1.211       .  T
C254        C255   1.207       .  T
C256        C257   1.205       .  T
C258        C259   1.346       .  D
C258        H260   1.086       .  S
C259        H261   1.084       .  S
C262        C263   1.338       .  D
C262        H264   1.087       .  S
C263        H265   1.086       .  S
C266        C267   1.210       .  T
C268        C269   1.361       .  D
C268        C529   1.481       .  S
C268        C534   1.451       .  S
C269        C526   1.501       .  S
C269        C523   1.461       .  S
C270        C271   1.357       .  D
C270        C511   1.487       .  S
C270        C520   1.455       .  S
C271        C516   1.494       .  S
C271        C522   1.452       .  S
C272        C273   1.361       .  D
C272        C505   1.480       .  S
C272        C509   1.450       .  S
C273        C502   1.501       .  S
C273        C499   1.455       .  S
C274        C275   1.354       .  D
C274        C487   1.475       .  S
C274        C495   1.442       .  S
C275        C491   1.489       .  S
C275        C497   1.452       .  S
C276        C488   1.494       .  S
C276        C525   1.494   1_545  S
C277        C501   1.485   1_565  S
C277        C512   1.478       .  S
C278        C279   1.355       .  D
C278        C481   1.482       .  S
C278        C475   1.458       .  S
C279        C477   1.489       .  S
C279        C485   1.450       .  S
C280        C281   1.360       .  D
C280        C463   1.496       .  S
C280        C474   1.458       .  S
C281        C467   1.479       .  S
C281        C472   1.449       .  S
C282        C283   1.360       .  D
C282        C454   1.491       .  S
C282        C461   1.452       .  S
C283        C458   1.501       .  S
C283        C451   1.458       .  S
C284        C285   1.361       .  D
C284        C439   1.482       .  S
C284        C450   1.448       .  S
C285        C443   1.490       .  S
C285        C447   1.454       .  S
C286        C287   1.357       .  D
C286        C434   1.492       .  S
C286        C437   1.457       .  S
C287        C429   1.476       .  S
C287        C427   1.447       .  S
C288        C289   1.357       .  D
C288        C420   1.490       .  S
C288        C425   1.450       .  S
C289        C415   1.495       .  S
C289        C423   1.459       .  S
C290        C407   1.479       .  S
C290        C433   1.477       .  S
C291        C412   1.481       .  S
C291        C419   1.475       .  S
C292        C293   1.358       .  D
C292        C411   1.488       .  S
C292        C405   1.461       .  S
C293        C402   1.486       .  S
C293        C400   1.446       .  S
C294        C295   1.358       .  D
C294        C392   1.492       .  S
C294        C395   1.456       .  S
C295        C408   1.494       .  S
C295        C398   1.457       .  S
C296        C401   1.505   1_655  S
C296        C506   1.505       .  S
C297        C391   1.479   1_655  S
C297        C492   1.482       .  S
C298        C430   1.491   1_565  S
C298        C457   1.493       .  S
C299        C416   1.485   1_565  S
C299        C444   1.489       .  S
C300        C453   1.481   1_655  S
C300        C464   1.480       .  S
C301        C440   1.505   1_655  S
C301        C478   1.490       .  S
C302        C482   1.467       .  S
C302        C515   1.483       .  S
C303        C468   1.486       .  S
C303        C530   1.480       .  S
O304        C312   1.261       .  A
O304       Co324   1.898       .  S
O305        C313   1.260       .  A
O305       Co325   1.894       .  S
O306        C314   1.253       .  A
O306       Co326   2.001       .  S
O307        C315   1.254       .  A
O307       Co327   2.005       .  S
O308        C314   1.247       .  A
O308       Co325   1.981       .  S
O309        C315   1.245       .  A
O309       Co324   1.975       .  S
O310        C313   1.288       .  A
O310       Co327   2.073       .  S
O311        C312   1.286       .  A
O311       Co326   2.070       .  S
C312        C521   1.430       .  S
C313        C426   1.427       .  S
C314        C406   1.440       .  S
C315        C476   1.437       .  S
O316        C329   1.285       .  A
O316       Co324   2.017       .  S
O317        C330   1.284       .  A
O317       Co325   2.015       .  S
O318        C331   1.269       .  A
O318       Co326   2.030       .  S
O319        C332   1.268       .  A
O319       Co327   2.031       .  S
O320        C332   1.269       .  A
O320       Co325   1.968       .  S
O321        C331   1.270       .  A
O321       Co324   1.970       .  S
O322        C329   1.273       .  A
O322       Co327   2.017       .  S
O323        C330   1.272       .  A
O323       Co326   2.020       .  S
Co324       O328   1.929       .  S
Co325       O328   1.929       .  S
Co326       O328   2.142       .  S
Co327       O328   2.144       .  S
C329        C471   1.436       .  S
C330        C397   1.438       .  S
C331        C533   1.436       .  S
C332        C438   1.435       .  S
O333        C341   1.266       .  A
O333       Co353   1.910       .  S
O334        C342   1.246       .  A
O334       Co354   1.981   1_545  S
O335        C343   1.292       .  A
O335       Co355   2.081       .  S
O336        C344   1.249       .  A
O336       Co356   1.986       .  S
O337        C343   1.265       .  A
O337       Co354   1.901       .  S
O338        C344   1.242       .  A
O338       Co353   1.967   1_545  S
O339        C342   1.248       .  A
O339       Co356   1.982       .  S
O340        C341   1.292       .  A
O340       Co355   2.080       .  S
C341        C524   1.442       .  S
C342        C428   1.431       .  S
C343        C452   1.435       .  S
C344        C496   1.425       .  S
O345        C358   1.292       .  A
O345       Co353   2.034   1_545  S
O346        C359   1.261       .  A
O346       Co354   1.959       .  S
O347        C360   1.267       .  A
O347       Co355   2.043       .  S
O348        C361   1.276       .  A
O348       Co356   2.018       .  S
O349        C361   1.289       .  A
O349       Co354   2.023   1_545  S
O350        C360   1.260       .  A
O350       Co353   1.954       .  S
O351        C358   1.274       .  A
O351       Co356   2.010       .  S
O352        C359   1.266       .  A
O352       Co355   2.042       .  S
Co353       O357   1.915   1_565  S
Co354       O357   1.918   1_565  S
Co355       O357   2.214   1_565  S
Co356       O357   2.079       .  S
C358        C500   1.433       .  S
C359        C448   1.436       .  S
C360        C519   1.434       .  S
C361        C424   1.434       .  S
O362        C370   1.284       .  A
O362       Co382   2.007   1_655  S
O363        C371   1.283       .  A
O363       Co383   2.004   1_455  S
O364        C372   1.268       .  A
O364       Co384   2.031       .  S
O365        C373   1.268       .  A
O365       Co385   2.031       .  S
O366        C372   1.269       .  A
O366       Co383   1.971       .  S
O367        C373   1.269       .  A
O367       Co382   1.969       .  S
O368        C371   1.275       .  A
O368       Co385   2.024       .  S
O369        C370   1.275       .  A
O369       Co384   2.024       .  S
C370        C498   1.430       .  S
C371        C462   1.429       .  S
C372        C473   1.437       .  S
C373        C396   1.435       .  S
O374        C387   1.260       .  A
O374       Co382   1.895       .  S
O375        C388   1.259       .  A
O375       Co383   1.892       .  S
O376        C389   1.255       .  A
O376       Co384   2.005       .  S
O377        C390   1.253       .  A
O377       Co385   1.997       .  S
O378        C390   1.244       .  A
O378       Co383   1.976   1_455  S
O379        C389   1.243       .  A
O379       Co382   1.971   1_655  S
O380        C387   1.288       .  A
O380       Co385   2.076       .  S
O381        C388   1.291       .  A
O381       Co384   2.084       .  S
Co382       O386   1.922   1_455  S
Co383       O386   1.920       .  S
Co384       O386   2.143       .  S
Co385       O386   2.141   1_455  S
C387        C399   1.430       .  S
C388        C486   1.431       .  S
C389        C510   1.433       .  S
C390        C449   1.432       .  S
C391        C392   1.339       .  D
C391        H393   1.086       .  S
C392        H394   1.085       .  S
C395        C396   1.207       .  T
C397        C398   1.208       .  T
C399        C400   1.203       .  T
C401        C402   1.345       .  D
C401        H403   1.086       .  S
C402        H404   1.085       .  S
C405        C406   1.209       .  T
C407        C408   1.341       .  D
C407        H409   1.086       .  S
C408        H410   1.082       .  S
C411        C412   1.345       .  D
C411        H413   1.086       .  S
C412        H414   1.087       .  S
C415        C416   1.343       .  D
C415        H417   1.082       .  S
C416        H418   1.086       .  S
C419        C420   1.341       .  D
C419        H421   1.087       .  S
C420        H422   1.085       .  S
C423        C424   1.206       .  T
C425        C426   1.202       .  T
C427        C428   1.204       .  T
C429        C430   1.343       .  D
C429        H431   1.087       .  S
C430        H432   1.087       .  S
C433        C434   1.344       .  D
C433        H435   1.086       .  S
C434        H436   1.087       .  S
C437        C438   1.206       .  T
C439        C440   1.341       .  D
C439        H441   1.085       .  S
C440        H442   1.084       .  S
C443        C444   1.348       .  D
C443        H445   1.087       .  S
C444        H446   1.086       .  S
C447        C448   1.207       .  T
C449        C450   1.204       .  T
C451        C452   1.207       .  T
C453        C454   1.343       .  D
C453        H455   1.085       .  S
C454        H456   1.084       .  S
C457        C458   1.344       .  D
C457        H459   1.085       .  S
C458        H460   1.080       .  S
C461        C462   1.203       .  T
C463        C464   1.344       .  D
C463        H465   1.085       .  S
C464        H466   1.086       .  S
C467        C468   1.342       .  D
C467        H469   1.087       .  S
C468        H470   1.086       .  S
C471        C472   1.206       .  T
C473        C474   1.208       .  T
C475        C476   1.207       .  T
C477        C478   1.342       .  D
C477        H479   1.087       .  S
C478        H480   1.086       .  S
C481        C482   1.341       .  D
C481        H483   1.087       .  S
C482        H484   1.086       .  S
C485        C486   1.204       .  T
C487        C488   1.343       .  D
C487        H489   1.087       .  S
C488        H490   1.086       .  S
C491        C492   1.346       .  D
C491        H493   1.086       .  S
C492        H494   1.086       .  S
C495        C496   1.200       .  T
C497        C498   1.203       .  T
C499        C500   1.205       .  T
C501        C502   1.350       .  D
C501        H503   1.085       .  S
C502        H504   1.085       .  S
C505        C506   1.341       .  D
C505        H507   1.084       .  S
C506        H508   1.085       .  S
C509        C510   1.205       .  T
C511        C512   1.340       .  D
C511        H513   1.086       .  S
C512        H514   1.086       .  S
C515        C516   1.345       .  D
C515        H517   1.086       .  S
C516        H518   1.084       .  S
C519        C520   1.206       .  T
C521        C522   1.204       .  T
C523        C524   1.210       .  T
C525        C526   1.344       .  D
C525        H527   1.086       .  S
C526        H528   1.082       .  S
C529        C530   1.342       .  D
C529        H531   1.086       .  S
C530        H532   1.087       .  S
C533        C534   1.207       .  T
