geometry optimzed in LAMMPS
_audit_creation_date              2020-11-30 
_audit_creation_method            'lammps2cif' 
_symmetry_space_group_name_H-M    'P1' 
_symmetry_Int_Tables_number       1 
_symmetry_cell_setting            triclinic 
loop_ 
_symmetry_equiv_pos_as_xyz 
  x,y,z 
_cell_length_a                    28.7194661739333 
_cell_length_b                    29.014478429809003 
_cell_length_c                    25.16794730944342 
_cell_angle_alpha                 90.94328790516744 
_cell_angle_beta                  88.76488637337167 
_cell_angle_gamma                 120.1527022369294 
loop_ 
_atom_site_label 
_atom_site_type_symbol 
_atom_site_fract_x 
_atom_site_fract_y 
_atom_site_fract_z 
_atom_site_charge 
C1          C  0.78844736  0.52100186  0.00421951     0.00370
C2          C  0.73974959  0.51795001  0.49852204     0.00370
C3          C  0.44922610  0.18255319  0.50143259     0.00370
C4          C  0.44893019  0.22896712  0.50899571     0.00370
C5          C  0.72894095  0.16324923  0.48793708     0.00370
C6          C  0.77457558  0.21186171  0.99417934     0.00370
C7          C  0.52373689  0.76284583  0.49515513     0.00370
C8          C  0.52109796  0.71466098  0.49241506     0.00370
C9          C  0.19580689  0.42928877  0.99939817     0.00370
C10         C  0.24357412  0.43016885  0.50298744     0.00370
C11         C  0.22171620  0.75381873  0.50501508     0.00370
C12         C  0.17512217  0.70676956  0.99567260     0.00370
O13         O  0.94001496  0.37020815  0.31211836    -0.80330
O14         O  0.03051616  0.40903800  0.18719403    -0.80350
O15         O  0.85753247  0.37441262  0.19631491    -0.80360
O16         O  0.06935154  0.46231154  0.30108365    -0.80300
O17         O  0.92034443  0.35339201  0.18881965    -0.80420
O18         O  0.02078215  0.44227383  0.37583110    -0.80340
O19         O  0.09112124  0.49227525  0.19834369    -0.80330
O20         O  0.87040965  0.38229323  0.30337432    -0.80370
C21         C  0.89055313  0.35514022  0.32078291     1.09360
C22         C  0.07804386  0.44668840  0.17961432     1.09250
C23         C  0.87275951  0.34190301  0.18036782     1.09380
C24         C  0.06156566  0.44739894  0.35038403     1.09260
O25         O  0.03705151  0.53197013  0.32689449    -0.80330
O26         O  0.91938982  0.44053387  0.13145097    -0.80410
O27         O  0.91893108  0.49841629  0.29875537    -0.80340
O28         O  0.03976846  0.55358293  0.19954623    -0.80320
O29         O  0.02677762  0.49570242  0.13539651    -0.80370
O30         O  0.93792336  0.45830832  0.35899923    -0.80340
O31         O  0.11167023  0.56585679  0.27679923    -0.80300
O32         O  0.91282757  0.49157735  0.19295846    -0.80370
Co33       Co  0.98997093  0.44868351  0.31331910     1.51530
Co34       Co  0.97412750  0.42469486  0.16519813     1.51690
Co35       Co  0.89453579  0.43853644  0.24751660     1.51570
Co36       Co  0.04764160  0.50694025  0.25162512     1.51470
O37         O  0.97051720  0.45147865  0.23875667    -1.42260
C38         C  0.08603534  0.56959645  0.31675926     1.09290
C39         C  0.90646490  0.47507018  0.14601836     1.09380
C40         C  0.91792856  0.48666864  0.34669586     1.09320
C41         C  0.04341473  0.54340655  0.15070203     1.09290
O42         O  0.48980135  0.42423874  0.14330848    -0.80330
O43         O  0.45149926  0.48827406  0.36105374    -0.80350
O44         O  0.45779523  0.37616312  0.31530822    -0.80360
O45         O  0.38651224  0.49919686  0.21721451    -0.80300
O46         O  0.50912389  0.43895433  0.37157113    -0.80420
O47         O  0.41713250  0.45414942  0.17050268    -0.80340
O48         O  0.39497591  0.44095518  0.29720302    -0.80330
O49         O  0.44874803  0.37173126  0.20965808    -0.80370
C50         C  0.46106026  0.37757600  0.16134829     1.09360
C51         C  0.40354042  0.45725089  0.34509966     1.09250
C52         C  0.47595557  0.39010745  0.36130088     1.09380
C53         C  0.38184552  0.46916353  0.17822808     1.09260
O54         O  0.50880747  0.52408991  0.11831939    -0.80330
O55         O  0.59668526  0.52200850  0.30953276    -0.80410
O56         O  0.56675419  0.43781635  0.19802591    -0.80340
O57         O  0.45845667  0.55336264  0.29337431    -0.80320
O58         O  0.54168530  0.57572354  0.30374528    -0.80370
O59         O  0.57961271  0.51864091  0.18558177    -0.80340
O60         O  0.49138512  0.55703465  0.19146404    -0.80300
O61         O  0.57473541  0.43811159  0.30553092    -0.80370
Co62       Co  0.50081977  0.48948534  0.18363065     1.51530
Co63       Co  0.52445402  0.50578381  0.33209334     1.51690
Co64       Co  0.51013977  0.40852168  0.25701974     1.51570
Co65       Co  0.44390354  0.49333288  0.24379443     1.51470
O66         O  0.49790613  0.47145068  0.26038860    -1.42260
C67         C  0.50489197  0.56111007  0.14151977     1.09290
C68         C  0.60782572  0.48614040  0.31878902     1.09380
C69         C  0.59433545  0.48446356  0.17823559     1.09320
C70         C  0.50460528  0.58640404  0.31046702     1.09290
O71         O  0.55989650  0.01488801  0.17531476    -0.80330
O72         O  0.51399942  0.92783010  0.34068734    -0.80350
O73         O  0.58510963  0.04116195  0.27164893    -0.80360
O74         O  0.48919991  0.88920529  0.20120807    -0.80300
O75         O  0.55472447  0.03622942  0.35168648    -0.80420
O76         O  0.48735050  0.92333425  0.12383236    -0.80340
O77         O  0.44582267  0.85768707  0.30335073    -0.80330
O78         O  0.57074915  0.09569365  0.19517166    -0.80370
C79         C  0.58298145  0.06628279  0.16661637     1.09360
C80         C  0.48615745  0.87785762  0.33387876     1.09250
C81         C  0.59367571  0.05112741  0.32042207     1.09380
C82         C  0.49512867  0.89085926  0.14993693     1.09260
O83         O  0.39579622  0.90296790  0.17684994    -0.80330
O84         O  0.45325753  0.02302318  0.34956939    -0.80410
O85         O  0.46297807  0.05011606  0.20672919    -0.80340
O86         O  0.36520688  0.88550640  0.28862447    -0.80320
O87         O  0.41156747  0.91562586  0.36177235    -0.80370
O88         O  0.46197785  0.00115118  0.14121749    -0.80340
O89         O  0.37995698  0.82699840  0.21188957    -0.80300
O90         O  0.51564628  0.08668876  0.29756368    -0.80370
Co91       Co  0.47831013  0.95601239  0.18599997     1.51530
Co92       Co  0.48254710  0.97493094  0.34455173     1.51690
Co93       Co  0.52074451  0.04088132  0.23914161     1.51570
Co94       Co  0.42891608  0.89354396  0.24554559     1.51470
O95         O  0.47015989  0.97194640  0.26512911    -1.42260
C96         C  0.36655019  0.85158054  0.17960730     1.09290
C97         C  0.47862264  0.07099643  0.33356137     1.09380
C98         C  0.45516989  0.03829173  0.15815238     1.09320
C99         C  0.36785921  0.88620375  0.33887487     1.09290
C100        C  0.25638320  0.78607352  0.45913320    -0.05660
C101        C  0.23754204  0.80649068  0.41951450    -0.33090
C102        C  0.27157189  0.83669161  0.37685846     0.36160
C103        C  0.32491880  0.84703194  0.37427606    -0.06010
C104        C  0.34242261  0.82530589  0.41319791    -0.32980
C105        C  0.30918361  0.79534978  0.45478663     0.36070
H106        H  0.19687286  0.79966708  0.42219852     0.16440
O107        O  0.25354661  0.85846420  0.34040418    -0.60480
H108        H  0.38355890  0.83337274  0.41263240     0.16460
O109        O  0.32828283  0.77354934  0.49012808    -0.60580
H110        H  0.35447797  0.80397584  0.51191123     0.43450
H111        H  0.23953215  0.83221756  0.31080272     0.43410
C112        C  0.31881623  0.82279953  0.14417297    -0.05660
C113        C  0.29603902  0.76779189  0.13414755    -0.33090
C114        C  0.26092093  0.74292516  0.09131914     0.36160
C115        C  0.24601405  0.77268226  0.05895339    -0.06010
C116        C  0.26432892  0.82610449  0.07265903    -0.32980
C117        C  0.30050631  0.85125144  0.11419468     0.36070
H118        H  0.30915935  0.74487435  0.15647920     0.16440
O119        O  0.24713276  0.69173497  0.07750331    -0.60480
H120        H  0.25329795  0.84964491  0.04853825     0.16460
O121        O  0.31900564  0.90431704  0.12387125    -0.60580
H122        H  0.34664974  0.92366210  0.09582782     0.43450
H123        H  0.22300090  0.66902292  0.10654291     0.43410
C124        C  0.15914765  0.68602280  0.44025290    -0.05660
C125        C  0.10672091  0.67059450  0.42431151    -0.33090
C126        C  0.08299988  0.63484637  0.38191079     0.36160
C127        C  0.11253205  0.61551556  0.35348786    -0.06010
C128        C  0.16652176  0.63478721  0.36621700    -0.32980
C129        C  0.18967641  0.66891263  0.40981875     0.36070
H130        H  0.08251495  0.68265102  0.44778014     0.16440
O131        O  0.03038021  0.61758214  0.36975750    -0.60480
H132        H  0.18933872  0.61927955  0.34560007     0.16460
O133        O  0.23880528  0.67858687  0.42709027    -0.60580
H134        H  0.26470762  0.69784359  0.39771879     0.43450
H135        H  0.00857002  0.59092453  0.39732579     0.43410
C136        C  0.14161345  0.66764418  0.03829050    -0.05660
C137        C  0.12376399  0.61374629  0.02759301    -0.33090
C138        C  0.08887585  0.57356542  0.06168001     0.36160
C139        C  0.07373518  0.58639261  0.11111770    -0.06010
C140        C  0.09132853  0.64031488  0.12267640    -0.32980
C141        C  0.12388301  0.68080281  0.08599910     0.36070
H142        H  0.13595534  0.60174003  0.99143135     0.16440
O143        O  0.06819540  0.52155811  0.04504092    -0.60480
H144        H  0.07922364  0.65105399  0.15973316     0.16460
O145        O  0.13561524  0.73216885  0.09578920    -0.60580
H146        H  0.15653338  0.74322399  0.12906295     0.43450
H147        H  0.09932237  0.51712486  0.03522734     0.43410
C148        C  0.27873256  0.43907509  0.45538057    -0.05660
C149        C  0.26664756  0.39904579  0.41686226    -0.33090
C150        C  0.30619332  0.40413389  0.37932480     0.36160
C151        C  0.35861957  0.44889694  0.38137322    -0.06010
C152        C  0.36915374  0.48938440  0.41855871    -0.32980
C153        C  0.32987594  0.48522544  0.45447905     0.36070
H154        H  0.22763170  0.36296752  0.41754280     0.16440
O155        O  0.29426704  0.36384963  0.34337414    -0.60480
H156        H  0.40858211  0.52471056  0.42049216     0.16460
O157        O  0.34203919  0.52641071  0.48948489    -0.60580
H158        H  0.36829934  0.52630986  0.51440225     0.43450
H159        H  0.27855174  0.37202500  0.31273070     0.43410
C160        C  0.27017524  0.43408360  0.05291970    -0.05660
C161        C  0.28441503  0.47779678  0.08700683    -0.33090
C162        C  0.31650635  0.48668515  0.13103960     0.36160
C163        C  0.33790275  0.45326190  0.14013943    -0.06010
C164        C  0.32241912  0.40853227  0.10727661    -0.32980
C165        C  0.28863824  0.39863653  0.06406275     0.36070
H166        H  0.27417775  0.50764267  0.07751192     0.16440
O167        O  0.33087891  0.53122270  0.16170832    -0.60480
H168        H  0.33813570  0.38230355  0.11399555     0.16460
O169        O  0.27516438  0.35517238  0.03195864    -0.60580
H170        H  0.30808396  0.36444637  0.01053112     0.43450
H171        H  0.30133586  0.52022946  0.18839920     0.43410
C172        C  0.09980944  0.43638987  0.37773185    -0.05660
C173        C  0.15447425  0.47571948  0.37983219    -0.33090
C174        C  0.18861426  0.47200731  0.41669145     0.36160
C175        C  0.16828553  0.42735486  0.45039356    -0.06010
C176        C  0.11505887  0.38576672  0.44400996    -0.32980
C177        C  0.08071231  0.39042955  0.40882490     0.36070
H178        H  0.16956768  0.51150643  0.35626763     0.16440
O179        O  0.24040278  0.51354822  0.42193746    -0.60480
H180        H  0.09873084  0.35124781  0.46960397     0.16460
O181        O  0.02788987  0.35063419  0.40641179    -0.60580
H182        H  0.00974751  0.35671095  0.43747692     0.43450
H183        H  0.23728046  0.54458533  0.43410563     0.43410
C184        C  0.11353720  0.44157299  0.13939894    -0.05660
C185        C  0.14787251  0.48679277  0.10924161    -0.33090
C186        C  0.17399476  0.48275810  0.06353438     0.36160
C187        C  0.16908393  0.43352010  0.04911040    -0.06010
C188        C  0.13718081  0.38857699  0.08060667    -0.32980
C189        C  0.10833714  0.39206071  0.12483801     0.36070
H190        H  0.15172267  0.52509643  0.11885206     0.16440
O191        O  0.20271341  0.52664992  0.03181994    -0.60480
H192        H  0.13302152  0.35044622  0.06961242     0.16460
O193        O  0.07507556  0.34700318  0.15326934    -0.60580
H194        H  0.04129338  0.32845043  0.13280484     0.43450
H195        H  0.23066750  0.55468719  0.05461909     0.43410
C196        C  0.51092766  0.62860905  0.34841899    -0.05660
C197        C  0.46422682  0.62403588  0.37240574    -0.33090
C198        C  0.46697304  0.65208427  0.41899852     0.36160
C199        C  0.51743846  0.68847784  0.44021966    -0.06010
C200        C  0.56450661  0.69680688  0.41380243    -0.32980
C201        C  0.56158944  0.66659514  0.36863938     0.36070
H202        H  0.42482447  0.59501474  0.35787354     0.16440
O203        O  0.42032741  0.64021435  0.44624852    -0.60480
H204        H  0.60353204  0.72483534  0.42984227     0.16460
O205        O  0.60828635  0.67227824  0.34668743    -0.60580
H206        H  0.61788114  0.69819158  0.31748003     0.43450
H207        H  0.39523441  0.64048246  0.41991450     0.43410
C208        C  0.52085269  0.68472557  0.03869856    -0.05660
C209        C  0.56569936  0.67890417  0.04816721    -0.33090
C210        C  0.56202249  0.64025074  0.08351214     0.36160
C211        C  0.51345069  0.60773978  0.11103735    -0.06010
C212        C  0.46982243  0.61589465  0.10444017    -0.32980
C213        C  0.47271157  0.65310660  0.06767250     0.36070
H214        H  0.60289212  0.70253895  0.02603092     0.16440
O215        O  0.60588569  0.63423543  0.09063442    -0.60480
H216        H  0.43210551  0.59074684  0.12516312     0.16460
O217        O  0.42766519  0.65660980  0.05863330    -0.60580
H218        H  0.39999032  0.62102120  0.04552234     0.43450
H219        H  0.60422421  0.60977239  0.06179516     0.43410
C220        C  0.51745895  0.78792154  0.44663961    -0.05660
C221        C  0.46651064  0.76635483  0.42393148    -0.33090
C222        C  0.45707184  0.79229575  0.38260878     0.36160
C223        C  0.49831470  0.84313210  0.36638366    -0.06010
C224        C  0.54996987  0.86392176  0.38789651    -0.32980
C225        C  0.55990520  0.83612392  0.42685121     0.36070
H226        H  0.43309048  0.73053101  0.44007689     0.16440
O227        O  0.40738238  0.76856743  0.35909820    -0.60480
H228        H  0.58246570  0.90259266  0.37549600     0.16460
O229        O  0.61062389  0.85773150  0.44704026    -0.60580
H230        H  0.62676084  0.83838719  0.42882643     0.43450
H231        H  0.37977414  0.75266108  0.38785539     0.43410
C232        C  0.51971099  0.78735508  0.04516233    -0.05660
C233        C  0.46808035  0.77515708  0.06179297    -0.33090
C234        C  0.46072067  0.80650877  0.09954120     0.36160
C235        C  0.50511002  0.85200226  0.12087193    -0.06010
C236        C  0.55727994  0.86318668  0.10660860    -0.32980
C237        C  0.56474393  0.83056360  0.06933197     0.36070
H238        H  0.43300890  0.74380484  0.04217393     0.16440
O239        O  0.40943415  0.79471106  0.11198306    -0.60330
H240        H  0.59196090  0.89845528  0.12223104     0.16460
O241        O  0.61596183  0.84359406  0.05397647    -0.60580
H242        H  0.62296955  0.81773920  0.07231164     0.43450
H243        H  0.40229813  0.81679989  0.08757184     0.43410
C244        C  0.84112436  0.29826841  0.14127063    -0.05660
C245        C  0.86812567  0.27741601  0.11066461    -0.33090
C246        C  0.84551159  0.24732556  0.06448264     0.36160
C247        C  0.79473285  0.23685959  0.04775238    -0.06010
C248        C  0.76614975  0.25470385  0.08005487    -0.32980
C249        C  0.78813212  0.28344805  0.12731655     0.36070
H250        H  0.90855385  0.28699709  0.12057601     0.16440
O251        O  0.87410336  0.22942144  0.03506599    -0.60480
H252        H  0.72761233  0.24843441  0.06779333     0.16460
O253        O  0.75816726  0.29850355  0.15833322    -0.60580
H254        H  0.73981072  0.26981774  0.18499567     0.43450
H255        H  0.90214983  0.26110027  0.01574513     0.43410
C256        C  0.85762087  0.31248074  0.35975193    -0.05660
C257        C  0.81689439  0.31643120  0.38789854    -0.33090
C258        C  0.79167303  0.28539005  0.43257948     0.36160
C259        C  0.80289304  0.24557027  0.44716010    -0.06010
C260        C  0.84031325  0.23810060  0.41680353    -0.32980
C261        C  0.86888428  0.27236436  0.37413874     0.36070
H262        H  0.80643092  0.34608701  0.37730106     0.16440
O263        O  0.75689170  0.29493060  0.46282121    -0.60480
H264        H  0.84845920  0.20677027  0.42714610     0.16460
O265        O  0.90632981  0.26544254  0.34590405    -0.60580
H266        H  0.93576401  0.27414687  0.37103503     0.43450
H267        H  0.72794324  0.29034561  0.43875621     0.43410
C268        C  0.64704323  0.08500419  0.34351640    -0.05660
C269        C  0.66716819  0.06062075  0.37644986    -0.33090
C270        C  0.69758440  0.08733964  0.42143556     0.36160
C271        C  0.70801369  0.13913042  0.43425374    -0.06010
C272        C  0.69134757  0.16468198  0.39870245    -0.32980
C273        C  0.66251472  0.13866661  0.35308051     0.36070
H274        H  0.65443743  0.01885780  0.37062149     0.16440
O275        O  0.71429873  0.06140590  0.45430180    -0.60480
H276        H  0.69633862  0.20318132  0.40841466     0.16460
O277        O  0.64215590  0.16319197  0.32285829    -0.60580
H278        H  0.66612427  0.17624357  0.29103256     0.43450
H279        H  0.68130365  0.03439453  0.47315789     0.43410
C280        C  0.62307403  0.09142727  0.12310729    -0.05660
C281        C  0.61917668  0.12849713  0.09123467    -0.33090
C282        C  0.65141364  0.14911801  0.04578783     0.36160
C283        C  0.69235363  0.13721220  0.03428080    -0.06010
C284        C  0.69821856  0.10190881  0.06731133    -0.32980
C285        C  0.66281705  0.07784460  0.11078810     0.36070
H286        H  0.58939101  0.14002242  0.10040870     0.16440
O287        O  0.64404474  0.18270977  0.01379135    -0.60480
H288        H  0.72977043  0.09261813  0.05903227     0.16460
O289        O  0.66788824  0.04191507  0.14125444    -0.60580
H290        H  0.69115120  0.06311463  0.17112741     0.43450
H291        H  0.61441695  0.15897718  0.98976462     0.43410
C292        C  0.45735239  0.26578292  0.46454418    -0.05660
C293        C  0.41347988  0.25836942  0.43449841    -0.33090
C294        C  0.41808962  0.29920510  0.40176132     0.36160
C295        C  0.46691622  0.34829298  0.39934085    -0.06010
C296        C  0.51075829  0.35504536  0.42862050    -0.32980
C297        C  0.50648246  0.31415431  0.46051969     0.36070
H298        H  0.37509884  0.22179056  0.43821538     0.16440
O299        O  0.37446905  0.29117307  0.37318601    -0.60480
H300        H  0.54904016  0.39178213  0.42561365     0.16460
O301        O  0.54980781  0.32240582  0.48969143    -0.60580
H302        H  0.57929489  0.33048726  0.46365275     0.43450
H303        H  0.35663809  0.30657117  0.39541095     0.43410
C304        C  0.44350577  0.25049855  0.06167634    -0.05660
C305        C  0.40078134  0.26083356  0.06740828    -0.33090
C306        C  0.40493126  0.30096886  0.10149739     0.36160
C307        C  0.45213457  0.33110129  0.13019175    -0.06010
C308        C  0.49165875  0.31617403  0.13001467    -0.32980
C309        C  0.48775573  0.27599521  0.09559591     0.36070
H310        H  0.36623534  0.24097580  0.04175010     0.16440
O311        O  0.36432064  0.31267678  0.10375259    -0.60480
H312        H  0.52681992  0.33740969  0.15466220     0.16460
O313        O  0.52830363  0.26389955  0.09291067    -0.60580
H314        H  0.56220515  0.29792550  0.08618898     0.43450
H315        H  0.34086943  0.29161189  0.13392289     0.43410
C316        C  0.45391106  0.16603298  0.44625775    -0.05660
C317        C  0.40930223  0.12089018  0.42538591    -0.33090
C318        C  0.41590070  0.09222406  0.38373637     0.36160
C319        C  0.46772120  0.10917968  0.36224824    -0.06010
C320        C  0.51110913  0.15809731  0.37851180    -0.32980
C321        C  0.50457894  0.18665828  0.42059532     0.36070
H322        H  0.37017141  0.10509187  0.44466153     0.16440
O323        O  0.37215183  0.04576441  0.36656245    -0.60480
H324        H  0.55125555  0.17123433  0.36282741     0.16460
O325        O  0.54922562  0.22941275  0.44188211    -0.60580
H326        H  0.56565645  0.25560124  0.41266498     0.43450
H327        H  0.36438279  0.01929107  0.39482377     0.43410
C328        C  0.44879891  0.07265441  0.11927893    -0.05660
C329        C  0.41882688  0.09794250  0.13040172    -0.33090
C330        C  0.41637729  0.13249958  0.09298910     0.36160
C331        C  0.44875284  0.14662398  0.04590679    -0.06010
C332        C  0.47924431  0.12147955  0.03646001    -0.32980
C333        C  0.47721113  0.08335500  0.07056275     0.36070
H334        H  0.39564693  0.08929237  0.16711405     0.16440
O335        O  0.38035573  0.14964758  0.10211312    -0.60480
H336        H  0.50459931  0.13018402  0.00143100     0.16460
O337        O  0.50549845  0.05833350  0.05649977    -0.60580
H338        H  0.48159804  0.02887988  0.03230900     0.43450
H339        H  0.34896074  0.12636034  0.07976040     0.43410
C340        C  0.71553824  0.51405661  0.44577780    -0.05660
C341        C  0.69859007  0.46852386  0.41348996    -0.33090
C342        C  0.66687666  0.46040531  0.36886124     0.36160
C343        C  0.65250890  0.49864623  0.35549209    -0.06010
C344        C  0.67421088  0.54645238  0.38510053    -0.32980
C345        C  0.70442267  0.55370813  0.43041115     0.36070
H346        H  0.70684031  0.43754021  0.42499671     0.16440
O347        O  0.64727983  0.41346805  0.34095522    -0.60480
H348        H  0.66438595  0.57686339  0.37573234     0.16460
O349        O  0.72177331  0.59918620  0.46040555    -0.60580
H350        H  0.69083677  0.59215315  0.48404190     0.43450
H351        H  0.67295300  0.42151346  0.31079301     0.43410
C352        C  0.63546916  0.49370417  0.13677180    -0.05660
C353        C  0.62126141  0.45456632  0.09723939    -0.33090
C354        C  0.65485376  0.46264264  0.05333739     0.36160
C355        C  0.70478889  0.50996730  0.04831509    -0.06010
C356        C  0.72020325  0.54892917  0.08868560    -0.32980
C357        C  0.68540506  0.54136417  0.13235681     0.36070
H358        H  0.58266034  0.41809328  0.09912243     0.16440
O359        O  0.63846863  0.42351208  0.01542119    -0.60480
H360        H  0.75861326  0.58555056  0.08572022     0.16460
O361        O  0.70098477  0.58000717  0.17092524    -0.60580
H362        H  0.68980376  0.60502350  0.15794885     0.43450
H363        H  0.61428539  0.42884535  0.49210065     0.43410
C364        C  0.87482705  0.48946779  0.11268343    -0.05660
C365        C  0.89672270  0.54191139  0.09492965    -0.33090
C366        C  0.86517494  0.55644132  0.06588040     0.36160
C367        C  0.81096707  0.51858662  0.05572538    -0.06010
C368        C  0.78733980  0.46890026  0.08065537    -0.32980
C369        C  0.81950443  0.45352831  0.10700702     0.36070
H370        H  0.93869983  0.57081501  0.10176311     0.16440
O371        O  0.88890182  0.60575722  0.04279866    -0.60480
H372        H  0.74594975  0.43905474  0.07257180     0.16460
O373        O  0.79689947  0.40247746  0.12521329    -0.60580
H374        H  0.79749431  0.38147274  0.09396879     0.43450
H375        H  0.87643740  0.62644547  0.06450016     0.43410
C376        C  0.81595307  0.51133664  0.45640543    -0.05660
C377        C  0.82230116  0.46655902  0.45938614    -0.33090
C378        C  0.85960365  0.46184732  0.42762937     0.36160
C379        C  0.88607918  0.49792554  0.38604164    -0.06010
C380        C  0.87712585  0.54105743  0.37992345    -0.32980
C381        C  0.84352048  0.54887291  0.41606284     0.36070
H382        H  0.80063448  0.43617637  0.48891506     0.16440
O383        O  0.86950070  0.42131666  0.43773266    -0.60480
H384        H  0.89736951  0.56942190  0.34820898     0.16460
O385        O  0.83980755  0.59405699  0.41320357    -0.60580
H386        H  0.81560797  0.58779560  0.38305169     0.43450
H387        H  0.89664090  0.43507001  0.46624224     0.43410
C388        C  0.78841836  0.52120346  0.50241094     0.00370
C389        C  0.73972757  0.51761475  0.00027100     0.00370
C390        C  0.44936709  0.18258888  0.00244956     0.00370
C391        C  0.44871055  0.22883717  0.00997648     0.00370
C392        C  0.72910744  0.16322655  0.98802944     0.00370
C393        C  0.77431177  0.21194467  0.49411449     0.00370
C394        C  0.52434956  0.76341708  0.99416648     0.00370
C395        C  0.52173470  0.71524254  0.99122660     0.00370
C396        C  0.19530631  0.42848109  0.50066207     0.00370
C397        C  0.24394281  0.43070427  0.00120568     0.00370
C398        C  0.22177398  0.75374937  0.00489133     0.00370
C399        C  0.17514320  0.70675877  0.49583475     0.00370
O400        O  0.93887254  0.37044875  0.81179282    -0.80330
O401        O  0.02870299  0.40870062  0.68744244    -0.80350
O402        O  0.85604996  0.37475714  0.69635745    -0.80360
O403        O  0.06802786  0.46205478  0.80101351    -0.80300
O404        O  0.91876679  0.35365113  0.68919535    -0.80420
O405        O  0.01951354  0.44225229  0.87572626    -0.80340
O406        O  0.08969814  0.49180878  0.69829804    -0.80330
O407        O  0.86919883  0.38250830  0.80350277    -0.80370
C408        C  0.88944503  0.35535604  0.82067940     1.09360
C409        C  0.07628383  0.44609657  0.67968265     1.09250
C410        C  0.87125489  0.34220849  0.68051672     1.09380
C411        C  0.06020794  0.44715743  0.85031621     1.09260
O412        O  0.03618678  0.53214352  0.82683123    -0.80330
O413        O  0.91822943  0.44093133  0.63159631    -0.80410
O414        O  0.91761678  0.49862607  0.79903879    -0.80340
O415        O  0.03900365  0.55372777  0.69950670    -0.80320
O416        O  0.02559812  0.49569539  0.63537475    -0.80370
O417        O  0.93701465  0.45851207  0.85894986    -0.80340
O418        O  0.11079293  0.56563762  0.77675458    -0.80300
O419        O  0.91132157  0.49184234  0.69309995    -0.80370
Co420      Co  0.98888369  0.44887468  0.81317567     1.51530
Co421      Co  0.97269390  0.42478401  0.66534313     1.51690
Co422      Co  0.89319645  0.43880370  0.74766957     1.51570
Co423      Co  0.04656573  0.50692080  0.75159955     1.51470
O424        O  0.96927338  0.45180903  0.73875907    -1.42260
C425        C  0.08526839  0.56958245  0.81670860     1.09290
C426        C  0.90532657  0.47549962  0.64609002     1.09380
C427        C  0.91699430  0.48690591  0.84693644     1.09320
C428        C  0.04260569  0.54348126  0.65067556     1.09290
O429        O  0.49142998  0.42409635  0.64341935    -0.80330
O430        O  0.45237584  0.48730453  0.86139655    -0.80350
O431        O  0.45986151  0.37579355  0.81525687    -0.80360
O432        O  0.38668834  0.49694950  0.71815230    -0.80300
O433        O  0.51063386  0.43865204  0.87175835    -0.80420
O434        O  0.41807562  0.45290515  0.67094765    -0.80340
O435        O  0.39635882  0.43914519  0.79760756    -0.80330
O436        O  0.45081080  0.37144509  0.70977379    -0.80370
C437        C  0.46293156  0.37740494  0.66143935     1.09360
C438        C  0.40456390  0.45567638  0.84539401     1.09250
C439        C  0.47763792  0.38980796  0.86136269     1.09380
C440        C  0.38216683  0.46704291  0.67910058     1.09260
O441        O  0.50928372  0.52356363  0.61864078    -0.80330
O442        O  0.59801594  0.52210316  0.80997477    -0.80410
O443        O  0.56877143  0.43832708  0.69798677    -0.80340
O444        O  0.45896301  0.55211094  0.79393424    -0.80320
O445        O  0.54240668  0.57510369  0.80396645    -0.80370
O446        O  0.58079843  0.51884864  0.68551317    -0.80340
O447        O  0.49135219  0.55593808  0.69191432    -0.80300
O448        O  0.57669141  0.43840114  0.80567566    -0.80370
Co449      Co  0.50189085  0.48905075  0.68386409     1.51530
Co450      Co  0.52558177  0.50534924  0.83239745     1.51690
Co451      Co  0.51219434  0.40855095  0.75706165     1.51570
Co452      Co  0.44470739  0.49203376  0.74431289     1.51470
O453        O  0.49941678  0.47108939  0.76058401    -1.42260
C454        C  0.50487270  0.56025276  0.64196268     1.09290
C455        C  0.60941212  0.48642145  0.81925179     1.09380
C456        C  0.59586193  0.48494533  0.67797829     1.09320
C457        C  0.50519805  0.58559743  0.81059260     1.09290
O458        O  0.55974159  0.01534597  0.67535244    -0.80330
O459        O  0.51396527  0.92841435  0.84048791    -0.80350
O460        O  0.58496121  0.04171207  0.77165096    -0.80360
O461        O  0.48904815  0.88976625  0.70129660    -0.80300
O462        O  0.55459903  0.03681698  0.85167126    -0.80420
O463        O  0.48717676  0.92374538  0.62386601    -0.80340
O464        O  0.44565236  0.85830748  0.80327480    -0.80330
O465        O  0.57070781  0.09623051  0.69511004    -0.80370
C466        C  0.58286728  0.06673485  0.66659639     1.09360
C467        C  0.48610186  0.87845052  0.83362731     1.09250
C468        C  0.59354215  0.05167119  0.82042081     1.09380
C469        C  0.49488347  0.89125696  0.65002862     1.09260
O470        O  0.39561452  0.90348297  0.67683541    -0.80330
O471        O  0.45316119  0.02355571  0.84959561    -0.80410
O472        O  0.46296240  0.05077899  0.70644162    -0.80340
O473        O  0.36503489  0.88608635  0.78864995    -0.80320
O474        O  0.41152014  0.91619354  0.86171656    -0.80370
O475        O  0.46190128  0.00160919  0.64108671    -0.80340
O476        O  0.37981382  0.82755888  0.71195908    -0.80300
O477        O  0.51546417  0.08727324  0.79754772    -0.80370
Co478      Co  0.47814678  0.95650866  0.68599205     1.51530
Co479      Co  0.48246718  0.97549615  0.84447232     1.51690
Co480      Co  0.52062841  0.04148240  0.73907697     1.51570
Co481      Co  0.42873883  0.89413974  0.74553822     1.51470
O482        O  0.46997867  0.97255827  0.76507080    -1.42260
C483        C  0.36636878  0.85209846  0.67966986     1.09290
C484        C  0.47853103  0.07155389  0.83366334     1.09380
C485        C  0.45516787  0.03883653  0.65787101     1.09320
C486        C  0.36776998  0.88676078  0.83889496     1.09290
C487        C  0.25640409  0.78615038  0.95904994    -0.05660
C488        C  0.23740894  0.80635103  0.91935249    -0.33090
C489        C  0.27141689  0.83671951  0.87675499     0.36160
C490        C  0.32492943  0.84754445  0.87436505    -0.06010
C491        C  0.34262461  0.82612779  0.91342689    -0.32980
C492        C  0.30938363  0.79590039  0.95487719     0.36070
H493        H  0.19662187  0.79921440  0.92191557     0.16440
O494        O  0.25318148  0.85818212  0.84017598    -0.60480
H495        H  0.38389250  0.83459544  0.91306106     0.16460
O496        O  0.32871869  0.77438478  0.99029373    -0.60580
H497        H  0.35465125  0.80489849  0.01217493     0.43450
H498        H  0.23938429  0.83188402  0.81060772     0.43410
C499        C  0.31862754  0.82323792  0.64427360    -0.05660
C500        C  0.29588987  0.76821429  0.63438607    -0.33090
C501        C  0.26081344  0.74323690  0.59156223     0.36160
C502        C  0.24591235  0.77289909  0.55905511    -0.06010
C503        C  0.26418667  0.82634741  0.57261162    -0.32980
C504        C  0.30032114  0.85160354  0.61415680     0.36070
H505        H  0.30903973  0.74537282  0.65680808     0.16440
O506        O  0.24707394  0.69202781  0.57789093    -0.60480
H507        H  0.25315755  0.84981501  0.54837457     0.16460
O508        O  0.31879736  0.90468626  0.62369553    -0.60580
H509        H  0.34647019  0.92397637  0.59565989     0.43450
H510        H  0.22292444  0.66937128  0.60694928     0.43410
C511        C  0.15898394  0.68613717  0.94006813    -0.05660
C512        C  0.10651668  0.67075926  0.92430237    -0.33090
C513        C  0.08261450  0.63499031  0.88194749     0.36160
C514        C  0.11197825  0.61553766  0.85340657    -0.06010
C515        C  0.16602384  0.63479275  0.86593275    -0.32980
C516        C  0.18938246  0.66899717  0.90945528     0.36070
H517        H  0.08241769  0.68286671  0.94788292     0.16440
O518        O  0.02998037  0.61783019  0.86995408    -0.60480
H519        H  0.18874730  0.61924652  0.84519977     0.16460
O520        O  0.23862890  0.67876702  0.92645378    -0.60580
H521        H  0.26443010  0.69839278  0.89713212     0.43450
H522        H  0.00820670  0.59118994  0.89754919     0.43410
C523        C  0.14159367  0.66768117  0.53847195    -0.05660
C524        C  0.12394735  0.61379464  0.52795166    -0.33090
C525        C  0.08889942  0.57360681  0.56197948     0.36160
C526        C  0.07332014  0.58645186  0.61116159    -0.06010
C527        C  0.09079598  0.64038154  0.62257549    -0.32980
C528        C  0.12356307  0.68085273  0.58596702     0.36070
H529        H  0.13641281  0.60181250  0.49195137     0.16440
O530        O  0.06844620  0.52156858  0.54552345    -0.60480
H531        H  0.07839841  0.65113346  0.65944690     0.16460
O532        O  0.13519540  0.73221199  0.59558823    -0.60580
H533        H  0.15609857  0.74337888  0.62886929     0.43450
H534        H  0.09961626  0.51741074  0.53512891     0.43410
C535        C  0.27855013  0.43841165  0.95346068    -0.05660
C536        C  0.26800974  0.39636465  0.91797752    -0.33090
C537        C  0.30794457  0.40099071  0.88115301     0.36160
C538        C  0.35925482  0.44742381  0.88097130    -0.06010
C539        C  0.36822233  0.48964542  0.91509032    -0.32980
C540        C  0.32851274  0.48584327  0.95022306     0.36070
H541        H  0.23004846  0.35923477  0.92065801     0.16440
O542        O  0.29773739  0.35882077  0.84842259    -0.60480
H543        H  0.40684618  0.52602167  0.91532241     0.16460
O544        O  0.33922849  0.52863318  0.98235469    -0.60580
H545        H  0.36673576  0.53168583  0.00757624     0.43450
H546        H  0.28098273  0.36366512  0.81654767     0.43410
C547        C  0.26909418  0.43172609  0.55482940    -0.05660
C548        C  0.28013917  0.47248903  0.59196928    -0.33090
C549        C  0.31226217  0.48068647  0.63581221     0.36160
C550        C  0.33764115  0.45031078  0.64143349    -0.06010
C551        C  0.32558493  0.40850465  0.60545820    -0.32980
C552        C  0.29130517  0.39874580  0.56272488     0.36070
H553        H  0.26784002  0.50124672  0.58511183     0.16440
O554        O  0.32284784  0.52219890  0.66972221    -0.60480
H555        H  0.34464418  0.38481783  0.60911889     0.16460
O556        O  0.28150316  0.35830404  0.52756488    -0.60580
H557        H  0.31536771  0.37109802  0.50656239     0.43450
H558        H  0.29338274  0.50701010  0.69676205     0.43410
C559        C  0.09837581  0.43603750  0.87770902    -0.05660
C560        C  0.15337862  0.47456838  0.87817414    -0.33090
C561        C  0.18795644  0.47113765  0.91466462     0.36160
C562        C  0.16777742  0.42739513  0.94956681    -0.06010
C563        C  0.11398820  0.38645613  0.94491269    -0.32980
C564        C  0.07919303  0.39100935  0.91024429     0.36070
H565        H  0.16854696  0.50971959  0.85361471     0.16440
O566        O  0.24005807  0.51233576  0.91845901    -0.60480
H567        H  0.09768470  0.35267120  0.97148141     0.16460
O568        O  0.02593099  0.35206659  0.90973438    -0.60580
H569        H  0.00920306  0.35959731  0.94107416     0.43450
H570        H  0.23763412  0.54329720  0.93222665     0.43410
C571        C  0.11148461  0.44056062  0.63944570    -0.05660
C572        C  0.14641194  0.48579795  0.60964183    -0.33090
C573        C  0.17273056  0.48169256  0.56418701     0.36160
C574        C  0.16771507  0.43239175  0.54981080    -0.06010
C575        C  0.13483308  0.38726655  0.58070624    -0.32980
C576        C  0.10561026  0.39082091  0.62457895     0.36070
H577        H  0.15075484  0.52427654  0.61939780     0.16440
O578        O  0.20245324  0.52583456  0.53307572    -0.60480
H579        H  0.13032245  0.34902350  0.56957984     0.16460
O580        O  0.07138345  0.34563629  0.65237818    -0.60580
H581        H  0.03781921  0.32789851  0.63151975     0.43450
H582        H  0.23129173  0.55274729  0.55597005     0.43410
C583        C  0.51181984  0.62854152  0.84773499    -0.05660
C584        C  0.46526953  0.62536956  0.87048622    -0.33090
C585        C  0.46787960  0.65365249  0.91689949     0.36160
C586        C  0.51823613  0.68917328  0.93895010    -0.06010
C587        C  0.56531552  0.69640770  0.91346857    -0.32980
C588        C  0.56243894  0.66582311  0.86864331     0.36070
H589        H  0.42592987  0.59711454  0.85523738     0.16440
O590        O  0.42106289  0.64256804  0.94332600    -0.60480
H591        H  0.60426867  0.72376886  0.93007307     0.16460
O592        O  0.60905853  0.67032123  0.84785026    -0.60580
H593        H  0.61980030  0.69626823  0.81849671     0.43450
H594        H  0.39665199  0.64330618  0.91645893     0.43410
C595        C  0.52043827  0.68425489  0.53989715    -0.05660
C596        C  0.56510593  0.67793983  0.54857597    -0.33090
C597        C  0.56151817  0.63913758  0.58362195     0.36160
C598        C  0.51321775  0.60691989  0.61167974    -0.06010
C599        C  0.46974088  0.61550780  0.60589169    -0.32980
C600        C  0.47256041  0.65295483  0.56940964     0.36070
H601        H  0.60204975  0.70126373  0.52596442     0.16440
O602        O  0.60520309  0.63264399  0.58989229    -0.60480
H603        H  0.43214048  0.59050862  0.62697600     0.16460
O604        O  0.42765962  0.65693089  0.56110181    -0.60580
H605        H  0.39954767  0.62137180  0.54832732     0.43450
H606        H  0.60308811  0.60833320  0.56068326     0.43410
C607        C  0.51776848  0.78846158  0.94584375    -0.05660
C608        C  0.46646428  0.76741174  0.92413167    -0.33090
C609        C  0.45685296  0.79319923  0.88280759     0.36160
C610        C  0.49828978  0.84364922  0.86590376    -0.06010
C611        C  0.55023786  0.86402258  0.88653839    -0.32980
C612        C  0.56034269  0.83614155  0.92526807     0.36070
H613        H  0.43297399  0.73213941  0.94105101     0.16440
O614        O  0.40686633  0.76973787  0.85990904    -0.60480
H615        H  0.58284955  0.90238974  0.87357005     0.16460
O616        O  0.61137555  0.85720454  0.94450163    -0.60580
H617        H  0.62663199  0.83716198  0.92607221     0.43450
H618        H  0.37953574  0.75337474  0.88884300     0.43410
C619        C  0.51891055  0.78684403  0.54600863    -0.05660
C620        C  0.46730167  0.77540337  0.56179434    -0.33090
C621        C  0.46003453  0.80715926  0.59909435     0.36160
C622        C  0.50452063  0.85212320  0.62105356    -0.06010
C623        C  0.55660633  0.86241673  0.60777080    -0.32980
C624        C  0.56395171  0.82950955  0.57075643     0.36070
H625        H  0.43228572  0.74430632  0.54184028     0.16440
O626        O  0.40884222  0.79622186  0.61056692    -0.60330
H627        H  0.59136978  0.89724658  0.62391303     0.16460
O628        O  0.61514070  0.84176184  0.55620775    -0.60580
H629        H  0.62131533  0.81549086  0.57483023     0.43450
H630        H  0.40315599  0.81980707  0.58686441     0.43410
C631        C  0.83982077  0.29859867  0.64132310    -0.05660
C632        C  0.86694598  0.27756584  0.61119007    -0.33090
C633        C  0.84466615  0.24743195  0.56496551     0.36160
C634        C  0.79410616  0.23710399  0.54769876    -0.06010
C635        C  0.76535809  0.25511547  0.57952580    -0.32980
C636        C  0.78699442  0.28390100  0.62685269     0.36070
H637        H  0.90723292  0.28700852  0.62152236     0.16440
O638        O  0.87336866  0.22932324  0.53604893    -0.60480
H639        H  0.72695180  0.24889141  0.56685852     0.16460
O640        O  0.75684369  0.29903605  0.65746050    -0.60580
H641        H  0.73813478  0.27030621  0.68401959     0.43450
H642        H  0.90161547  0.26090535  0.51676844     0.43410
C643        C  0.85677396  0.31264508  0.85966725    -0.05660
C644        C  0.81629039  0.31656915  0.88831507    -0.33090
C645        C  0.79148162  0.28548206  0.93307792     0.36160
C646        C  0.80285026  0.24564528  0.94722582    -0.06010
C647        C  0.84003348  0.23823483  0.91638419    -0.32980
C648        C  0.86819764  0.27253519  0.87364186     0.36070
H649        H  0.80573224  0.34623559  0.87804180     0.16440
O650        O  0.75693270  0.29496012  0.96379218    -0.60480
H651        H  0.84830155  0.20690929  0.92639346     0.16460
O652        O  0.90545746  0.26568142  0.84498386    -0.60580
H653        H  0.93589575  0.27618194  0.86932518     0.43450
H654        H  0.72769924  0.29025389  0.94007258     0.43410
C655        C  0.64692114  0.08543406  0.84353966    -0.05660
C656        C  0.66704312  0.06091311  0.87629027    -0.33090
C657        C  0.69751803  0.08747652  0.92129930     0.36160
C658        C  0.70799213  0.13923877  0.93434147    -0.06010
C659        C  0.69127838  0.16491199  0.89899350    -0.32980
C660        C  0.66241463  0.13906634  0.85333418     0.36070
H661        H  0.65428604  0.01916335  0.87029509     0.16440
O662        O  0.71425907  0.06141988  0.95396517    -0.60480
H663        H  0.69628308  0.20338166  0.90888088     0.16460
O664        O  0.64206493  0.16372137  0.82329420    -0.60580
H665        H  0.66601455  0.17686350  0.79146171     0.43450
H666        H  0.68128589  0.03437413  0.97282335     0.43410
C667        C  0.62291584  0.09175934  0.62305053    -0.05660
C668        C  0.61888320  0.12860775  0.59095480    -0.33090
C669        C  0.65107886  0.14907254  0.54546135     0.36160
C670        C  0.69211511  0.13726172  0.53414069    -0.06010
C671        C  0.69810702  0.10218317  0.56739079    -0.32980
C672        C  0.66273686  0.07824422  0.61090852     0.36070
H673        H  0.58903264  0.14007586  0.60000187     0.16440
O674        O  0.64357573  0.18242503  0.51323508    -0.60480
H675        H  0.72974615  0.09298372  0.55926135     0.16460
O676        O  0.66792265  0.04251787  0.64159608    -0.60580
H677        H  0.69116818  0.06388513  0.67140989     0.43450
H678        H  0.61402676  0.15851741  0.48921647     0.43410
C679        C  0.45759587  0.26569101  0.96547631    -0.05660
C680        C  0.41403955  0.25837233  0.93497359    -0.33090
C681        C  0.41912682  0.29918190  0.90193574     0.36160
C682        C  0.46814109  0.34807063  0.89960547    -0.06010
C683        C  0.51168558  0.35470328  0.92929906    -0.32980
C684        C  0.50690349  0.31388132  0.96161854     0.36070
H685        H  0.37554025  0.22190476  0.93855482     0.16440
O686        O  0.37579341  0.29134278  0.87298181    -0.60480
H687        H  0.55009780  0.39128206  0.92628960     0.16460
O688        O  0.54986886  0.32201834  0.99134236    -0.60580
H689        H  0.57960998  0.33001252  0.96566214     0.43450
H690        H  0.35772637  0.30654155  0.89513704     0.43410
C691        C  0.44445314  0.25071175  0.56086335    -0.05660
C692        C  0.40166026  0.26079610  0.56753953    -0.33090
C693        C  0.40605370  0.30063900  0.60215894     0.36160
C694        C  0.45374902  0.33101009  0.63006464    -0.06010
C695        C  0.49344844  0.31631935  0.62894295    -0.32980
C696        C  0.48916266  0.27620907  0.59421740     0.36070
H697        H  0.36673174  0.24083560  0.54237367     0.16440
O698        O  0.36507104  0.31174045  0.60580412    -0.60480
H699        H  0.52894195  0.33761881  0.65314680     0.16460
O700        O  0.52971354  0.26414940  0.59069595    -0.60580
H701        H  0.56355341  0.29821967  0.58392765     0.43450
H702        H  0.34276225  0.29097896  0.63667880     0.43410
C703        C  0.45413842  0.16614426  0.94722530    -0.05660
C704        C  0.40947196  0.12119338  0.92615873    -0.33090
C705        C  0.41597545  0.09273370  0.88423320     0.36160
C706        C  0.46776376  0.10969958  0.86264169    -0.06010
C707        C  0.51123925  0.15843244  0.87917841    -0.32980
C708        C  0.50480376  0.18678592  0.92154148     0.36070
H709        H  0.37034002  0.10538870  0.94543322     0.16440
O710        O  0.37215315  0.04643741  0.86686838    -0.60480
H711        H  0.55136630  0.17155318  0.86344999     0.16460
O712        O  0.54950856  0.22933840  0.94299434    -0.60580
H713        H  0.56608324  0.25564436  0.91389155     0.43450
H714        H  0.36431466  0.01977696  0.89494816     0.43410
C715        C  0.44879900  0.07306781  0.61880444    -0.05660
C716        C  0.41884292  0.09839937  0.62974281    -0.33090
C717        C  0.41630260  0.13273294  0.59211564     0.36160
C718        C  0.44859628  0.14663689  0.54497891    -0.06010
C719        C  0.47900090  0.12138721  0.53565228    -0.32980
C720        C  0.47705818  0.08346388  0.57000459     0.36070
H721        H  0.39572383  0.08993487  0.66647817     0.16440
O722        O  0.38024451  0.14986155  0.60108288    -0.60480
H723        H  0.50422781  0.12987311  0.50055165     0.16460
O724        O  0.50527035  0.05833000  0.55608528    -0.60580
H725        H  0.48127923  0.02874085  0.53206949     0.43450
H726        H  0.34884957  0.12646680  0.57877701     0.43410
C727        C  0.71574060  0.51391362  0.94743034    -0.05660
C728        C  0.69946198  0.46872732  0.91477164    -0.33090
C729        C  0.66831506  0.46085740  0.86976211     0.36160
C730        C  0.65373486  0.49894794  0.85643514    -0.06010
C731        C  0.67467459  0.54640911  0.88654143    -0.32980
C732        C  0.70438961  0.55343948  0.93218591     0.36070
H733        H  0.70784786  0.43781491  0.92619854     0.16440
O734        O  0.64946584  0.41426935  0.84138035    -0.60480
H735        H  0.66462603  0.57667753  0.87724328     0.16460
O736        O  0.72106779  0.59857942  0.96257147    -0.60580
H737        H  0.68981269  0.59106401  0.98593904     0.43450
H738        H  0.67565205  0.42282131  0.81160188     0.43410
C739        C  0.63662241  0.49432037  0.63599599    -0.05660
C740        C  0.62230201  0.45494571  0.59668519    -0.33090
C741        C  0.65542496  0.46299655  0.55238139     0.36160
C742        C  0.70503699  0.51056241  0.54670342    -0.06010
C743        C  0.72054277  0.54984325  0.58676108    -0.32980
C744        C  0.68617661  0.54229349  0.63082863     0.36070
H745        H  0.58395069  0.41825732  0.59907681     0.16440
O746        O  0.63896330  0.42354752  0.51479520    -0.60480
H747        H  0.75872239  0.58665157  0.58329303     0.16460
O748        O  0.70184210  0.58126449  0.66905639    -0.60580
H749        H  0.69012429  0.60585895  0.65606188     0.43450
H750        H  0.61416094  0.42926131  0.99262576     0.43410
C751        C  0.87404291  0.49003241  0.61241343    -0.05660
C752        C  0.89639901  0.54226757  0.59389705    -0.33090
C753        C  0.86523143  0.55671664  0.56409383     0.36160
C754        C  0.81096152  0.51900973  0.55397714    -0.06010
C755        C  0.78695144  0.46957648  0.57942464    -0.32980
C756        C  0.81870988  0.45428140  0.60659966     0.36070
H757        H  0.93842952  0.57101030  0.60069415     0.16440
O758        O  0.88935982  0.60574298  0.54036774    -0.60480
H759        H  0.74555172  0.43979813  0.57129937     0.16460
O760        O  0.79572684  0.40340975  0.62539109    -0.60580
H761        H  0.79610508  0.38198664  0.59443073     0.43450
H762        H  0.87698679  0.62685967  0.56146256     0.43410
C763        C  0.81613256  0.51153374  0.95809444    -0.05660
C764        C  0.82249810  0.46675431  0.96063382    -0.33090
C765        C  0.85948783  0.46208053  0.92838213     0.36160
C766        C  0.88554245  0.49818870  0.88671662    -0.06010
C767        C  0.87661501  0.54138422  0.88109187    -0.32980
C768        C  0.84337344  0.54917145  0.91774821     0.36070
H769        H  0.80098798  0.43622617  0.99005690     0.16440
O770        O  0.86942808  0.42149604  0.93803622    -0.60480
H771        H  0.89657864  0.56978997  0.84935207     0.16460
O772        O  0.83962706  0.59436356  0.91532225    -0.60580
H773        H  0.81556115  0.58838101  0.88512363     0.43450
H774        H  0.89682471  0.43517962  0.96630394     0.43410
loop_ 
_geom_bond_atom_site_label_1 
_geom_bond_atom_site_label_2 
_geom_bond_distance 
_geom_bond_site_symmetry_2 
_ccdc_geom_bond_type 
C1          C367   1.479       .  S
C1          C763   1.491   1_554  S
C1          C389   1.358       .  D
C2          C340   1.488       .  S
C2          C742   1.501       .  S
C2          C388   1.358       .  D
C3          C316   1.487       .  S
C3          C718   1.518       .  S
C3            C4   1.361       .  D
C4          C292   1.490       .  S
C4          C691   1.472       .  S
C5          C271   1.503       .  S
C5          C670   1.488       .  S
C5          C393   1.368       .  D
C6          C247   1.503   1_556  S
C6          C646   1.488       .  S
C6          C392   1.368       .  D
C7          C220   1.491       .  S
C7          C619   1.484       .  S
C7            C8   1.362       .  D
C8          C199   1.486       .  S
C8          C595   1.491       .  S
C9          C187   1.489   1_556  S
C9          C562   1.490       .  S
C9          C397   1.364   1_556  D
C10         C148   1.489       .  S
C10         C547   1.499       .  S
C10         C396   1.365       .  D
C11         C100   1.500       .  S
C11         C502   1.506       .  S
C11         C399   1.369       .  D
C12         C136   1.504   1_556  S
C12         C511   1.501       .  S
C12         C398   1.369   1_556  D
O13          C21   1.274       .  A
O13         Co33   1.990       .  S
O14          C22   1.261       .  A
O14         Co34   1.980   1_455  S
O15          C23   1.279       .  A
O15         Co35   2.060       .  S
O16          C24   1.298       .  A
O16         Co36   2.124       .  S
O17          C23   1.256       .  A
O17         Co34   1.952       .  S
O18          C24   1.265       .  A
O18         Co33   1.878   1_455  S
O19          C22   1.265       .  A
O19         Co36   1.995       .  S
O20          C21   1.276       .  A
O20         Co35   2.004       .  S
C21         C256   1.487       .  S
C22         C184   1.479       .  S
C23         C244   1.496       .  S
C24         C172   1.475       .  S
O25          C38   1.299       .  A
O25         Co33   2.120   1_455  S
O26          C39   1.278       .  A
O26         Co34   2.049       .  S
O27          C40   1.255       .  A
O27         Co35   1.979       .  S
O28          C41   1.274       .  A
O28         Co36   1.995       .  S
O29          C41   1.272       .  A
O29         Co34   1.991   1_455  S
O30          C40   1.262       .  A
O30         Co33   1.992       .  S
O31          C38   1.269       .  A
O31         Co36   1.887       .  S
O32          C39   1.249       .  A
O32         Co35   1.938       .  S
Co33         O37   1.984       .  S
Co34         O37   2.017       .  S
Co35         O37   2.027       .  S
Co36         O37   2.008   1_455  S
C38         C127   1.476       .  S
C39         C364   1.459       .  S
C40         C379   1.475       .  S
C41         C139   1.490       .  S
O42          C50   1.266       .  A
O42         Co62   2.016       .  S
O43          C51   1.279       .  A
O43         Co63   2.014       .  S
O44          C52   1.255       .  A
O44         Co64   1.956       .  S
O45          C53   1.265       .  A
O45         Co65   1.878       .  S
O46          C52   1.275       .  A
O46         Co63   2.032       .  S
O47          C53   1.299       .  A
O47         Co62   2.118       .  S
O48          C51   1.271       .  A
O48         Co65   1.983       .  S
O49          C50   1.249       .  A
O49         Co64   1.956       .  S
C50         C307   1.458       .  S
C51         C151   1.483       .  S
C52         C295   1.472       .  S
C53         C163   1.476       .  S
O54          C67   1.267       .  A
O54         Co62   1.889       .  S
O55          C68   1.259       .  A
O55         Co63   1.956       .  S
O56          C69   1.279       .  A
O56         Co64   2.030       .  S
O57          C70   1.263       .  A
O57         Co65   1.996       .  S
O58          C70   1.257       .  A
O58         Co63   1.974       .  S
O59          C69   1.268       .  A
O59         Co62   1.980       .  S
O60          C67   1.297       .  A
O60         Co65   2.117       .  S
O61          C68   1.274       .  A
O61         Co64   2.033       .  S
Co62         O66   1.999       .  S
Co63         O66   2.017       .  S
Co64         O66   2.025       .  S
Co65         O66   2.002       .  S
C67         C211   1.474       .  S
C68         C343   1.485       .  S
C69         C352   1.481       .  S
C70         C196   1.480       .  S
O71          C79   1.312       .  A
O71         Co91   2.109   1_545  S
O72          C80   1.267       .  A
O72         Co92   1.981       .  S
O73          C81   1.257       .  A
O73         Co93   2.034       .  S
O74          C82   1.296       .  A
O74         Co94   2.095       .  S
O75          C81   1.243       .  A
O75         Co92   1.948   1_545  S
O76          C82   1.268       .  A
O76         Co91   1.896       .  S
O77          C80   1.272       .  A
O77         Co94   2.006       .  S
O78          C79   1.280       .  A
O78         Co93   1.874       .  S
C79         C280   1.478       .  S
C80         C223   1.483       .  S
C81         C268   1.469       .  S
C82         C235   1.475       .  S
O83          C96   1.295       .  A
O83         Co91   2.094       .  S
O84          C97   1.272       .  A
O84         Co92   1.959   1_545  S
O85          C98   1.258       .  A
O85         Co93   2.000       .  S
O86          C99   1.268       .  A
O86         Co94   2.018       .  S
O87          C99   1.255       .  A
O87         Co92   1.941       .  S
O88          C98   1.255       .  A
O88         Co91   1.973   1_545  S
O89          C96   1.275       .  A
O89         Co94   1.922       .  S
O90          C97   1.282       .  A
O90         Co93   2.018       .  S
Co91         O95   2.072       .  S
Co92         O95   2.031       .  S
Co93         O95   1.903   1_545  S
Co94         O95   2.025       .  S
C96         C112   1.500       .  S
C97         C319   1.469       .  S
C98         C328   1.486       .  S
C99         C103   1.478       .  S
C100        C101   1.415       .  A
C100        C105   1.403       .  A
C101        C102   1.415       .  A
C101        H106   1.083       .  S
C102        C103   1.406       .  A
C102        O107   1.370       .  S
C103        C104   1.403       .  A
C104        C105   1.384       .  A
C104        H108   1.083       .  S
C105        O109   1.371       .  S
O107        H111   0.992       .  S
O109        H110   0.990       .  S
C112        C113   1.408       .  A
C112        C117   1.415       .  A
C113        C114   1.411       .  A
C113        H118   1.083       .  S
C114        C115   1.415       .  A
C114        O119   1.372       .  S
C115        C398   1.507       .  S
C115        C116   1.403       .  A
C116        C117   1.402       .  A
C116        H120   1.084       .  S
C117        O121   1.372       .  S
O119        H123   0.992       .  S
O121        H122   0.992       .  S
C124        C399   1.501       .  S
C124        C125   1.404       .  A
C124        C129   1.413       .  A
C125        C126   1.401       .  A
C125        H130   1.084       .  S
C126        C127   1.409       .  A
C126        O131   1.372       .  S
C127        C128   1.401       .  A
C128        C129   1.400       .  A
C128        H132   1.084       .  S
C129        O133   1.372       .  S
O131        H135   0.992       .  S
O133        H134   0.992       .  S
C136        C137   1.403       .  A
C136        C141   1.414       .  A
C137        C138   1.386       .  A
C137        H142   1.082   1_554  S
C138        C139   1.414       .  A
C138        O143   1.376       .  S
C139        C140   1.409       .  A
C140        C141   1.415       .  A
C140        H144   1.083       .  S
C141        O145   1.372       .  S
O143        H147   0.991       .  S
O145        H146   0.992       .  S
C148        C149   1.408       .  A
C148        C153   1.405       .  A
C149        C150   1.412       .  A
C149        H154   1.083       .  S
C150        C151   1.412       .  A
C150        O155   1.371       .  S
C151        C152   1.402       .  A
C152        C153   1.388       .  A
C152        H156   1.082       .  S
C153        O157   1.373       .  S
O155        H159   0.992       .  S
O157        H158   0.992       .  S
C160        C397   1.495       .  S
C160        C161   1.404       .  A
C160        C165   1.408       .  A
C161        C162   1.393       .  A
C161        H166   1.077       .  S
C162        C163   1.408       .  A
C162        O167   1.372       .  S
C163        C164   1.402       .  A
C164        C165   1.401       .  A
C164        H168   1.079       .  S
C165        O169   1.372       .  S
O167        H171   0.992       .  S
O169        H170   0.992       .  S
C172        C173   1.404       .  A
C172        C177   1.404       .  A
C173        C174   1.408       .  A
C173        H178   1.084       .  S
C174        C175   1.412       .  A
C174        O179   1.373       .  S
C175        C396   1.490       .  S
C175        C176   1.403       .  A
C176        C177   1.397       .  A
C176        H180   1.084       .  S
C177        O181   1.371       .  S
O179        H183   0.992       .  S
O181        H182   0.992       .  S
C184        C185   1.404       .  A
C184        C189   1.411       .  A
C185        C186   1.395       .  A
C185        H190   1.084       .  S
C186        C187   1.405       .  A
C186        O191   1.374       .  S
C187        C188   1.404       .  A
C188        C189   1.406       .  A
C188        H192   1.083       .  S
C189        O193   1.371       .  S
O191        H195   0.992       .  S
O193        H194   0.992       .  S
C196        C197   1.404       .  A
C196        C201   1.412       .  A
C197        C198   1.397       .  A
C197        H202   1.083       .  S
C198        C199   1.406       .  A
C198        O203   1.374       .  S
C199        C200   1.402       .  A
C200        C201   1.402       .  A
C200        H204   1.083       .  S
C201        O205   1.371       .  S
O203        H207   0.993       .  S
O205        H206   0.991       .  S
C208        C395   1.491   1_554  S
C208        C209   1.406       .  A
C208        C213   1.410       .  A
C209        C210   1.404       .  A
C209        H214   1.083       .  S
C210        C211   1.405       .  A
C210        O215   1.372       .  S
C211        C212   1.401       .  A
C212        C213   1.403       .  A
C212        H216   1.083       .  S
C213        O217   1.372       .  S
O215        H219   0.992       .  S
O217        H218   0.991       .  S
C220        C221   1.401       .  A
C220        C225   1.405       .  A
C221        C222   1.402       .  A
C221        H226   1.078       .  S
C222        C223   1.410       .  A
C222        O227   1.377       .  S
C223        C224   1.408       .  A
C224        C225   1.401       .  A
C224        H228   1.084       .  S
C225        O229   1.370       .  S
O227        H231   0.992       .  S
O229        H230   0.992       .  S
C232        C394   1.484   1_554  S
C232        C233   1.396       .  A
C232        C237   1.412       .  A
C233        C234   1.390       .  A
C233        H238   1.083       .  S
C234        C235   1.404       .  A
C234        O239   1.364       .  S
C235        C236   1.404       .  A
C236        C237   1.410       .  A
C236        H240   1.083       .  S
C237        O241   1.370       .  S
O239        H243   0.990       .  S
O241        H242   0.992       .  S
C244        C245   1.411       .  A
C244        C249   1.409       .  A
C245        C246   1.402       .  A
C245        H250   1.083       .  S
C246        C247   1.405       .  A
C246        O251   1.372       .  S
C247        C248   1.410       .  A
C248        C249   1.407       .  A
C248        H252   1.079       .  S
C249        O253   1.370       .  S
O251        H255   0.992       .  S
O253        H254   0.992       .  S
C256        C257   1.407       .  A
C256        C261   1.410       .  A
C257        C258   1.394       .  A
C257        H262   1.083       .  S
C258        C259   1.402       .  A
C258        O263   1.375       .  S
C259        C393   1.488       .  S
C259        C260   1.407       .  A
C260        C261   1.411       .  A
C260        H264   1.083       .  S
C261        O265   1.372       .  S
O263        H267   0.992       .  S
O265        H266   0.991       .  S
C268        C269   1.404       .  A
C268        C273   1.406       .  A
C269        C270   1.407       .  A
C269        H274   1.084       .  S
C270        C271   1.410       .  A
C270        O275   1.372       .  S
C271        C272   1.406       .  A
C272        C273   1.399       .  A
C272        H276   1.077       .  S
C273        O277   1.372       .  S
O275        H279   0.992       .  S
O277        H278   0.992       .  S
C280        C281   1.402       .  A
C280        C285   1.410       .  A
C281        C282   1.394       .  A
C281        H286   1.083       .  S
C282        C283   1.406       .  A
C282        O287   1.372       .  S
C283        C392   1.488   1_554  S
C283        C284   1.406       .  A
C284        C285   1.408       .  A
C284        H288   1.083       .  S
C285        O289   1.371       .  S
O287        H291   0.992   1_554  S
O289        H290   0.992       .  S
C292        C293   1.403       .  A
C292        C297   1.407       .  A
C293        C294   1.404       .  A
C293        H298   1.083       .  S
C294        C295   1.411       .  A
C294        O299   1.371       .  S
C295        C296   1.398       .  A
C296        C297   1.396       .  A
C296        H300   1.083       .  S
C297        O301   1.371       .  S
O299        H303   0.992       .  S
O301        H302   0.992       .  S
C304        C391   1.473       .  S
C304        C305   1.406       .  A
C304        C309   1.404       .  A
C305        C306   1.392       .  A
C305        H310   1.084       .  S
C306        C307   1.398       .  A
C306        O311   1.369       .  S
C307        C308   1.403       .  A
C308        C309   1.401       .  A
C308        H312   1.083       .  S
C309        O313   1.375       .  S
O311        H315   0.992       .  S
O313        H314   0.992       .  S
C316        C317   1.398       .  A
C316        C321   1.411       .  A
C317        C318   1.396       .  A
C317        H322   1.084       .  S
C318        C319   1.410       .  A
C318        O323   1.373       .  S
C319        C320   1.400       .  A
C320        C321   1.401       .  A
C320        H324   1.084       .  S
C321        O325   1.371       .  S
O323        H327   0.992       .  S
O325        H326   0.992       .  S
C328        C329   1.405       .  A
C328        C333   1.407       .  A
C329        C330   1.415       .  A
C329        H334   1.083       .  S
C330        C331   1.422       .  A
C330        O335   1.369       .  S
C331        C390   1.518       .  S
C331        C332   1.408       .  A
C332        C333   1.388       .  A
C332        H336   1.080       .  S
C333        O337   1.373       .  S
O335        H339   0.992       .  S
O337        H338   0.992       .  S
C340        C341   1.407       .  A
C340        C345   1.401       .  A
C341        C342   1.402       .  A
C341        H346   1.083       .  S
C342        C343   1.412       .  A
C342        O347   1.371       .  S
C343        C344   1.409       .  A
C344        C345   1.396       .  A
C344        H348   1.083       .  S
C345        O349   1.372       .  S
O347        H351   0.992       .  S
O349        H350   0.992       .  S
C352        C353   1.400       .  A
C352        C357   1.410       .  A
C353        C354   1.394       .  A
C353        H358   1.083       .  S
C354        C355   1.406       .  A
C354        O359   1.367       .  S
C355        C389   1.500       .  S
C355        C356   1.409       .  A
C356        C357   1.413       .  A
C356        H360   1.083       .  S
C357        O361   1.371       .  S
O359        H750   0.991   1_554  S
O361        H362   0.992       .  S
H363        O746   0.991       .  S
C364        C365   1.400       .  A
C364        C369   1.405       .  A
C365        C366   1.398       .  A
C365        H370   1.084       .  S
C366        C367   1.409       .  A
C366        O371   1.371       .  S
C367        C368   1.400       .  A
C368        C369   1.394       .  A
C368        H372   1.084       .  S
C369        O373   1.367       .  S
O371        H375   0.992       .  S
O373        H374   0.992       .  S
C376        C388   1.492       .  S
C376        C377   1.403       .  A
C376        C381   1.407       .  A
C377        C378   1.383       .  A
C377        H382   1.080       .  S
C378        C379   1.404       .  A
C378        O383   1.370       .  S
C379        C380   1.410       .  A
C380        C381   1.409       .  A
C380        H384   1.083       .  S
C381        O385   1.371       .  S
O383        H387   0.992       .  S
O385        H386   0.992       .  S
C388        C754   1.479       .  S
C389        C727   1.488   1_554  S
C390        C703   1.488   1_554  S
C390        C391   1.362       .  D
C391        C679   1.489   1_554  S
C392        C658   1.503       .  S
C393        C634   1.503       .  S
C394        C607   1.490       .  S
C394        C395   1.362       .  D
C395        C586   1.487       .  S
C396        C574   1.488       .  S
C397        C535   1.489   1_554  S
C398        C487   1.500   1_554  S
C399        C523   1.504       .  S
O400        C408   1.274       .  A
O400       Co420   1.990       .  S
O401        C409   1.260       .  A
O401       Co421   1.979   1_455  S
O402        C410   1.279       .  A
O402       Co422   2.061       .  S
O403        C411   1.298       .  A
O403       Co423   2.125       .  S
O404        C410   1.255       .  A
O404       Co421   1.951       .  S
O405        C411   1.264       .  A
O405       Co420   1.878   1_455  S
O406        C409   1.265       .  A
O406       Co423   1.995       .  S
O407        C408   1.276       .  A
O407       Co422   2.005       .  S
C408        C643   1.487       .  S
C409        C571   1.479       .  S
C410        C631   1.496       .  S
C411        C559   1.475       .  S
O412        C425   1.299       .  A
O412       Co420   2.120   1_455  S
O413        C426   1.277       .  A
O413       Co421   2.048       .  S
O414        C427   1.255       .  A
O414       Co422   1.979       .  S
O415        C428   1.274       .  A
O415       Co423   1.994       .  S
O416        C428   1.273       .  A
O416       Co421   1.993   1_455  S
O417        C427   1.262       .  A
O417       Co420   1.990       .  S
O418        C425   1.269       .  A
O418       Co423   1.888       .  S
O419        C426   1.250       .  A
O419       Co422   1.939       .  S
Co420       O424   1.983       .  S
Co421       O424   2.015       .  S
Co422       O424   2.030       .  S
Co423       O424   2.009   1_455  S
C425        C514   1.477       .  S
C426        C751   1.459       .  S
C427        C766   1.474       .  S
C428        C526   1.490       .  S
O429        C437   1.265       .  A
O429       Co449   2.015       .  S
O430        C438   1.279       .  A
O430       Co450   2.017       .  S
O431        C439   1.255       .  A
O431       Co451   1.955       .  S
O432        C440   1.265       .  A
O432       Co452   1.876       .  S
O433        C439   1.274       .  A
O433       Co450   2.030       .  S
O434        C440   1.299       .  A
O434       Co449   2.118       .  S
O435        C438   1.270       .  A
O435       Co452   1.982       .  S
O436        C437   1.249       .  A
O436       Co451   1.956       .  S
C437        C694   1.457       .  S
C438        C538   1.482       .  S
C439        C682   1.471       .  S
C440        C550   1.478       .  S
O441        C454   1.267       .  A
O441       Co449   1.889       .  S
O442        C455   1.259       .  A
O442       Co450   1.956       .  S
O443        C456   1.279       .  A
O443       Co451   2.031       .  S
O444        C457   1.264       .  A
O444       Co452   2.000       .  S
O445        C457   1.257       .  A
O445       Co450   1.973       .  S
O446        C456   1.268       .  A
O446       Co449   1.980       .  S
O447        C454   1.297       .  A
O447       Co452   2.117       .  S
O448        C455   1.274       .  A
O448       Co451   2.032       .  S
Co449       O453   1.999       .  S
Co450       O453   2.017       .  S
Co451       O453   2.024       .  S
Co452       O453   2.000       .  S
C454        C598   1.474       .  S
C455        C730   1.484       .  S
C456        C739   1.482       .  S
C457        C583   1.481       .  S
O458        C466   1.312       .  A
O458       Co478   2.109   1_545  S
O459        C467   1.267       .  A
O459       Co479   1.982       .  S
O460        C468   1.257       .  A
O460       Co480   2.034       .  S
O461        C469   1.296       .  A
O461       Co481   2.095       .  S
O462        C468   1.243       .  A
O462       Co479   1.947   1_545  S
O463        C469   1.268       .  A
O463       Co478   1.897       .  S
O464        C467   1.271       .  A
O464       Co481   2.004       .  S
O465        C466   1.280       .  A
O465       Co480   1.874       .  S
C466        C667   1.478       .  S
C467        C610   1.482       .  S
C468        C655   1.469       .  S
C469        C622   1.476       .  S
O470        C483   1.295       .  A
O470       Co478   2.094       .  S
O471        C484   1.272       .  A
O471       Co479   1.959   1_545  S
O472        C485   1.259       .  A
O472       Co480   2.001       .  S
O473        C486   1.268       .  A
O473       Co481   2.018       .  S
O474        C486   1.255       .  A
O474       Co479   1.940       .  S
O475        C485   1.255       .  A
O475       Co478   1.973   1_545  S
O476        C483   1.275       .  A
O476       Co481   1.921       .  S
O477        C484   1.283       .  A
O477       Co480   2.019       .  S
Co478       O482   2.072       .  S
Co479       O482   2.031       .  S
Co480       O482   1.903   1_545  S
Co481       O482   2.025       .  S
C483        C499   1.500       .  S
C484        C706   1.470       .  S
C485        C715   1.486       .  S
C486        C490   1.478       .  S
C487        C488   1.415       .  A
C487        C492   1.403       .  A
C488        C489   1.415       .  A
C488        H493   1.083       .  S
C489        C490   1.406       .  A
C489        O494   1.370       .  S
C490        C491   1.403       .  A
C491        C492   1.384       .  A
C491        H495   1.083       .  S
C492        O496   1.371       .  S
O494        H498   0.992       .  S
O496        H497   0.990   1_556  S
C499        C500   1.408       .  A
C499        C504   1.414       .  A
C500        C501   1.410       .  A
C500        H505   1.083       .  S
C501        C502   1.415       .  A
C501        O506   1.372       .  S
C502        C503   1.403       .  A
C503        C504   1.402       .  A
C503        H507   1.084       .  S
C504        O508   1.372       .  S
O506        H510   0.992       .  S
O508        H509   0.992       .  S
C511        C512   1.404       .  A
C511        C516   1.413       .  A
C512        C513   1.401       .  A
C512        H517   1.084       .  S
C513        C514   1.409       .  A
C513        O518   1.372       .  S
C514        C515   1.402       .  A
C515        C516   1.401       .  A
C515        H519   1.084       .  S
C516        O520   1.372       .  S
O518        H522   0.992       .  S
O520        H521   0.992       .  S
C523        C524   1.403       .  A
C523        C528   1.414       .  A
C524        C525   1.387       .  A
C524        H529   1.082       .  S
C525        C526   1.414       .  A
C525        O530   1.377       .  S
C526        C527   1.409       .  A
C527        C528   1.415       .  A
C527        H531   1.083       .  S
C528        O532   1.372       .  S
O530        H534   0.991       .  S
O532        H533   0.992       .  S
C535        C536   1.408       .  A
C535        C540   1.405       .  A
C536        C537   1.413       .  A
C536        H541   1.083       .  S
C537        C538   1.411       .  A
C537        O542   1.371       .  S
C538        C539   1.401       .  A
C539        C540   1.389       .  A
C539        H543   1.081       .  S
C540        O544   1.373       .  S
O542        H546   0.992       .  S
O544        H545   0.992   1_556  S
C547        C548   1.405       .  A
C547        C552   1.410       .  A
C548        C549   1.393       .  A
C548        H553   1.074       .  S
C549        C550   1.408       .  A
C549        O554   1.371       .  S
C550        C551   1.402       .  A
C551        C552   1.401       .  A
C551        H555   1.078       .  S
C552        O556   1.373       .  S
O554        H558   0.992       .  S
O556        H557   0.992       .  S
C559        C560   1.404       .  A
C559        C564   1.405       .  A
C560        C561   1.408       .  A
C560        H565   1.084       .  S
C561        C562   1.412       .  A
C561        O566   1.372       .  S
C562        C563   1.404       .  A
C563        C564   1.397       .  A
C563        H567   1.084       .  S
C564        O568   1.371       .  S
O566        H570   0.992       .  S
O568        H569   0.992       .  S
C571        C572   1.403       .  A
C571        C576   1.411       .  A
C572        C573   1.394       .  A
C572        H577   1.084       .  S
C573        C574   1.406       .  A
C573        O578   1.374       .  S
C574        C575   1.404       .  A
C575        C576   1.406       .  A
C575        H579   1.083       .  S
C576        O580   1.371       .  S
O578        H582   0.992       .  S
O580        H581   0.992       .  S
C583        C584   1.403       .  A
C583        C588   1.412       .  A
C584        C585   1.398       .  A
C584        H589   1.083       .  S
C585        C586   1.407       .  A
C585        O590   1.374       .  S
C586        C587   1.402       .  A
C587        C588   1.402       .  A
C587        H591   1.083       .  S
C588        O592   1.371       .  S
O590        H594   0.993       .  S
O592        H593   0.991       .  S
C595        C596   1.406       .  A
C595        C600   1.411       .  A
C596        C597   1.403       .  A
C596        H601   1.083       .  S
C597        C598   1.405       .  A
C597        O602   1.372       .  S
C598        C599   1.401       .  A
C599        C600   1.404       .  A
C599        H603   1.084       .  S
C600        O604   1.372       .  S
O602        H606   0.992       .  S
O604        H605   0.992       .  S
C607        C608   1.401       .  A
C607        C612   1.405       .  A
C608        C609   1.401       .  A
C608        H613   1.078       .  S
C609        C610   1.410       .  A
C609        O614   1.377       .  S
C610        C611   1.408       .  A
C611        C612   1.401       .  A
C611        H615   1.084       .  S
C612        O616   1.370       .  S
O614        H618   0.992       .  S
O616        H617   0.992       .  S
C619        C620   1.396       .  A
C619        C624   1.412       .  A
C620        C621   1.389       .  A
C620        H625   1.083       .  S
C621        C622   1.404       .  A
C621        O626   1.364       .  S
C622        C623   1.404       .  A
C623        C624   1.410       .  A
C623        H627   1.083       .  S
C624        O628   1.370       .  S
O626        H630   0.990       .  S
O628        H629   0.992       .  S
C631        C632   1.411       .  A
C631        C636   1.409       .  A
C632        C633   1.401       .  A
C632        H637   1.083       .  S
C633        C634   1.405       .  A
C633        O638   1.372       .  S
C634        C635   1.410       .  A
C635        C636   1.407       .  A
C635        H639   1.079       .  S
C636        O640   1.370       .  S
O638        H642   0.992       .  S
O640        H641   0.992       .  S
C643        C644   1.407       .  A
C643        C648   1.410       .  A
C644        C645   1.394       .  A
C644        H649   1.083       .  S
C645        C646   1.403       .  A
C645        O650   1.375       .  S
C646        C647   1.407       .  A
C647        C648   1.411       .  A
C647        H651   1.083       .  S
C648        O652   1.371       .  S
O650        H654   0.992       .  S
O652        H653   0.991       .  S
C655        C656   1.404       .  A
C655        C660   1.406       .  A
C656        C657   1.407       .  A
C656        H661   1.084       .  S
C657        C658   1.410       .  A
C657        O662   1.372       .  S
C658        C659   1.406       .  A
C659        C660   1.399       .  A
C659        H663   1.077       .  S
C660        O664   1.372       .  S
O662        H666   0.992       .  S
O664        H665   0.992       .  S
C667        C668   1.402       .  A
C667        C672   1.409       .  A
C668        C669   1.394       .  A
C668        H673   1.083       .  S
C669        C670   1.406       .  A
C669        O674   1.372       .  S
C670        C671   1.406       .  A
C671        C672   1.408       .  A
C671        H675   1.083       .  S
C672        O676   1.371       .  S
O674        H678   0.992       .  S
O676        H677   0.992       .  S
C679        C680   1.403       .  A
C679        C684   1.407       .  A
C680        C681   1.403       .  A
C680        H685   1.083       .  S
C681        C682   1.411       .  A
C681        O686   1.371       .  S
C682        C683   1.398       .  A
C683        C684   1.395       .  A
C683        H687   1.083       .  S
C684        O688   1.371       .  S
O686        H690   0.992       .  S
O688        H689   0.992       .  S
C691        C692   1.405       .  A
C691        C696   1.404       .  A
C692        C693   1.392       .  A
C692        H697   1.084       .  S
C693        C694   1.398       .  A
C693        O698   1.368       .  S
C694        C695   1.403       .  A
C695        C696   1.400       .  A
C695        H699   1.083       .  S
C696        O700   1.375       .  S
O698        H702   0.992       .  S
O700        H701   0.992       .  S
C703        C704   1.398       .  A
C703        C708   1.411       .  A
C704        C705   1.396       .  A
C704        H709   1.084       .  S
C705        C706   1.410       .  A
C705        O710   1.373       .  S
C706        C707   1.400       .  A
C707        C708   1.401       .  A
C707        H711   1.084       .  S
C708        O712   1.371       .  S
O710        H714   0.992       .  S
O712        H713   0.992       .  S
C715        C716   1.405       .  A
C715        C720   1.408       .  A
C716        C717   1.415       .  A
C716        H721   1.083       .  S
C717        C718   1.422       .  A
C717        O722   1.369       .  S
C718        C719   1.408       .  A
C719        C720   1.389       .  A
C719        H723   1.080       .  S
C720        O724   1.373       .  S
O722        H726   0.992       .  S
O724        H725   0.992       .  S
C727        C728   1.407       .  A
C727        C732   1.401       .  A
C728        C729   1.402       .  A
C728        H733   1.083       .  S
C729        C730   1.412       .  A
C729        O734   1.371       .  S
C730        C731   1.409       .  A
C731        C732   1.396       .  A
C731        H735   1.083       .  S
C732        O736   1.372       .  S
O734        H738   0.992       .  S
O736        H737   0.992       .  S
C739        C740   1.401       .  A
C739        C744   1.410       .  A
C740        C741   1.394       .  A
C740        H745   1.082       .  S
C741        C742   1.406       .  A
C741        O746   1.367       .  S
C742        C743   1.409       .  A
C743        C744   1.413       .  A
C743        H747   1.083       .  S
C744        O748   1.371       .  S
O748        H749   0.992       .  S
C751        C752   1.400       .  A
C751        C756   1.404       .  A
C752        C753   1.399       .  A
C752        H757   1.084       .  S
C753        C754   1.409       .  A
C753        O758   1.371       .  S
C754        C755   1.400       .  A
C755        C756   1.393       .  A
C755        H759   1.084       .  S
C756        O760   1.367       .  S
O758        H762   0.992       .  S
O760        H761   0.992       .  S
C763        C764   1.403       .  A
C763        C768   1.407       .  A
C764        C765   1.382       .  A
C764        H769   1.080       .  S
C765        C766   1.404       .  A
C765        O770   1.370       .  S
C766        C767   1.410       .  A
C767        C768   1.409       .  A
C767        H771   1.083       .  S
C768        O772   1.371       .  S
O770        H774   0.992       .  S
O772        H773   0.992       .  S
