geometry optimzed in LAMMPS
_audit_creation_date              2020-11-30 
_audit_creation_method            'lammps2cif' 
_symmetry_space_group_name_H-M    'P1' 
_symmetry_Int_Tables_number       1 
_symmetry_cell_setting            triclinic 
loop_ 
_symmetry_equiv_pos_as_xyz 
  x,y,z 
_cell_length_a                    45.59859253 
_cell_length_b                    45.50224479550511 
_cell_length_c                    37.68860444845035 
_cell_angle_alpha                 89.91408346755374 
_cell_angle_beta                  89.67543604414524 
_cell_angle_gamma                 120.16204706767452 
loop_ 
_atom_site_label 
_atom_site_type_symbol 
_atom_site_fract_x 
_atom_site_fract_y 
_atom_site_fract_z 
_atom_site_charge 
C1          C  0.33318432  0.16686684  0.28573280     0.45800
H2          H  0.33014288  0.16611281  0.31486558    -0.03300
C3          C  0.33747308  0.16921387  0.21694674     0.45800
H4          H  0.33910016  0.16985753  0.18749758    -0.03300
C5          C  0.30132224  0.13913197  0.26771088    -0.17000
C6          C  0.33855449  0.20038738  0.26971378    -0.16700
C7          C  0.36266425  0.16221846  0.27147851    -0.17100
C8          C  0.30339836  0.14054202  0.23141897    -0.17100
C9          C  0.34251221  0.20219664  0.23335764    -0.16600
C10         C  0.36441110  0.16357834  0.23467735    -0.17000
O11         O  0.06874482  0.10868247  0.46439744    -0.72700
O12         O  0.10871985  0.07094776  0.03663484    -0.73600
O13         O  0.10772268  0.07264488  0.46010498    -0.62300
O14         O  0.07018766  0.10775254  0.04132353    -0.70700
O15         O  0.02203945  0.06598016  0.02339706    -0.70200
O16         O  0.06767857  0.02389070  0.47960371    -0.61500
O17         O  0.05550588  0.03444694  0.04914956    -0.74000
O18         O  0.03318357  0.05481655  0.45360691    -0.72800
Cu19       Cu  0.09175586  0.09304275  0.50064225     1.04600
Cu20       Cu  0.04326195  0.04341822  0.50142296     1.04300
C21         C  0.04250759  0.08581370  0.44813964     0.93500
C22         C  0.08658828  0.04413062  0.05316332     0.92700
C23         C  0.09207213  0.03997467  0.45878968     0.84800
C24         C  0.03758440  0.09083827  0.04354401     0.91100
O25         O  0.39102236  0.45993659  0.46301264    -0.72700
O26         O  0.43191900  0.04081119  0.03256898    -0.73600
O27         O  0.43103017  0.03617458  0.45540827    -0.62300
O28         O  0.39155013  0.46431947  0.03926045    -0.70700
O29         O  0.43289200  0.45677484  0.02275410    -0.70200
O30         O  0.47890703  0.04200616  0.47300783    -0.61500
O31         O  0.46841321  0.02421135  0.04445623    -0.74000
O32         O  0.44394573  0.47533329  0.45155510    -0.72800
Cu33       Cu  0.40863363  0.50053463  0.49747798     1.04600
Cu34       Cu  0.45726734  0.99954772  0.49804407     1.04300
C35         C  0.41275125  0.45382796  0.44804347     0.93500
C36         C  0.45876444  0.04576044  0.04872993     0.92700
C37         C  0.46363423  0.05135013  0.45258888     0.84800
C38         C  0.40736637  0.44759445  0.04202699     0.91100
O39         O  0.46025472  0.39322977  0.03763300    -0.72700
O40         O  0.04188069  0.43347917  0.46860375    -0.73600
O41         O  0.03649459  0.43221819  0.04542677    -0.62300
O42         O  0.46520422  0.39469747  0.46182340    -0.70700
O43         O  0.45930076  0.43776522  0.47535432    -0.70200
O44         O  0.04138848  0.48026784  0.02935800    -0.61500
O45         O  0.02723024  0.47149159  0.45668304    -0.74000
O46         O  0.47323470  0.44585283  0.04753381    -0.72800
Cu47       Cu  0.50104754  0.41079012  0.00344621     1.04600
Cu48       Cu  0.00035906  0.46011436  0.50218930     1.04300
C49         C  0.45264405  0.41426196  0.05160090     0.93500
C50         C  0.04821228  0.46108337  0.45280389     0.92700
C51         C  0.05139320  0.46479816  0.04873072     0.84800
C52         C  0.44935875  0.41131103  0.45764796     0.91100
C53         C  0.47896566  0.11376880  0.11777801     0.02600
C54         C  0.01511247  0.13369578  0.11766776     0.02500
C55         C  0.03305438  0.12507035  0.09300555    -0.18000
C56         C  0.01647572  0.09773788  0.06924173     0.02600
C57         C  0.47984074  0.07704269  0.07086677     0.02500
C58         C  0.46227509  0.08633906  0.09440693    -0.18000
H59         H  0.43478040  0.07129616  0.09522824     0.04600
H60         H  0.06049637  0.13921937  0.09277529     0.04600
C61         C  0.37472682  0.35683097  0.10667756     0.02600
C62         C  0.35501196  0.37306131  0.10568796     0.02500
C63         C  0.36679576  0.40287109  0.08484287    -0.18000
C64         C  0.39794406  0.41759713  0.06630540     0.02600
C65         C  0.41891337  0.40204718  0.06992943     0.02500
C66         C  0.40617947  0.37175353  0.08931620    -0.18000
H67         H  0.42120024  0.35938455  0.09112278     0.04600
H68         H  0.35123522  0.41458780  0.08274231     0.04600
C69         C  0.48793707  0.11584910  0.37646464     0.02600
C70         C  0.02393107  0.13149415  0.37606622     0.02500
C71         C  0.03996740  0.12067801  0.39993675    -0.18000
C72         C  0.02180922  0.09473687  0.42449525     0.02600
C73         C  0.48519087  0.07887216  0.42602329     0.02500
C74         C  0.46927299  0.08948601  0.40141814    -0.18000
H75         H  0.44184104  0.07668872  0.40156501     0.04600
H76         H  0.06743708  0.13286513  0.39937142     0.04600
C77         C  0.36089337  0.37731261  0.38947659     0.02600
C78         C  0.37676367  0.35732844  0.39387915     0.02500
C79         C  0.40633607  0.37059594  0.41499084    -0.18000
C80         C  0.41937813  0.40131606  0.43340726     0.02600
C81         C  0.40237239  0.42083603  0.42946230     0.02500
C82         C  0.37366517  0.40810702  0.40790643    -0.18000
H83         H  0.36144643  0.42314057  0.40444921     0.04600
H84         H  0.41993420  0.35685512  0.41707672     0.04600
C85         C  0.13870274  0.01966746  0.38768471     0.02600
C86         C  0.12197458  0.48361421  0.38912390     0.02500
C87         C  0.09302239  0.46574046  0.41084971    -0.18000
C88         C  0.08070297  0.48258827  0.43210671     0.02600
C89         C  0.10027449  0.01940967  0.43373822     0.02500
C90         C  0.12817904  0.03683664  0.41082913    -0.18000
H91         H  0.14184838  0.06440218  0.41055642     0.04600
H92         H  0.07961433  0.43817767  0.41080520     0.04600
C93         C  0.13541694  0.02516837  0.12062076     0.02600
C94         C  0.11870877  0.48903301  0.12138195     0.02500
C95         C  0.09139641  0.47030104  0.09779089    -0.18000
C96         C  0.07991768  0.48628703  0.07416231     0.02600
C97         C  0.09642217  0.02307799  0.07513239     0.02500
C98         C  0.12410237  0.04120205  0.09728049    -0.18000
H99         H  0.13695714  0.06877380  0.09673574     0.04600
H100        H  0.07836359  0.44278752  0.09826348     0.04600
C101        C  0.17064197  0.33715446  0.21545269     0.46400
H102        H  0.17466218  0.33910813  0.18639781    -0.03300
C103        C  0.16442756  0.33477222  0.28389941     0.45800
H104        H  0.16137863  0.33368232  0.31322774    -0.03300
C105        C  0.14303421  0.30179115  0.22901238    -0.17000
C106        C  0.20322780  0.34522610  0.23493226    -0.16700
C107        C  0.16041765  0.36240278  0.22992351    -0.17100
C108        C  0.13995779  0.30106841  0.26560227    -0.17100
C109        C  0.20016544  0.34329040  0.27139485    -0.16600
C110        C  0.15710937  0.36104473  0.26643366    -0.17000
C111        C  0.12878401  0.47003990  0.14629663    -0.04900
C112        C  0.13704957  0.48001090  0.18193899    -0.04900
C113        C  0.14825840  0.46315951  0.20430644    -0.23000
C114        C  0.14864832  0.43418462  0.19244317     0.19200
C115        C  0.13771030  0.42228435  0.15774569     0.16400
C116        C  0.12925821  0.44094426  0.13454190    -0.18100
C117        C  0.13449496  0.39139840  0.14708125    -0.19900
C118        C  0.14102550  0.37195909  0.17092703    -0.12500
C119        C  0.15340845  0.38403251  0.20519558     0.04200
C120        C  0.15856311  0.41618696  0.21503516    -0.24600
H121        H  0.13501163  0.50096180  0.19262360     0.09300
H122        H  0.15538617  0.47202504  0.23127953     0.12900
H123        H  0.12265654  0.43249292  0.10738231     0.12800
H124        H  0.12547128  0.38151661  0.12077080     0.12600
H125        H  0.13563789  0.34707562  0.16238695     0.13100
H126        H  0.16951040  0.42704683  0.24044069     0.15100
C127        C  0.13366285  0.46344698  0.36871515    -0.04900
C128        C  0.16222488  0.46204357  0.37998745    -0.04900
C129        C  0.17257560  0.44175819  0.36228181    -0.23000
C130        C  0.15348025  0.42108392  0.33403994     0.19200
C131        C  0.12350169  0.42074856  0.32380295     0.16400
C132        C  0.11395247  0.44216853  0.34098730    -0.18100
C133        C  0.10347294  0.39876883  0.29676462    -0.19900
C134        C  0.11362881  0.37821651  0.27925520    -0.12500
C135        C  0.14442353  0.37994249  0.28776144     0.04200
C136        C  0.16376353  0.40068641  0.31593647    -0.24600
H137        H  0.17629592  0.97633993  0.40295410     0.09300
H138        H  0.19514989  0.44177137  0.37109448     0.12900
H139        H  0.09101927  0.44200276  0.33322619     0.12800
H140        H  0.08012709  0.39767836  0.28896366     0.12600
H141        H  0.09800288  0.36173484  0.25815436     0.13100
H142        H  0.18722086  0.40162306  0.32303775     0.15100
C143        C  0.33431037  0.37081564  0.36281969    -0.04900
C144        C  0.34404167  0.39222524  0.33291719    -0.04900
C145        C  0.31994709  0.39097838  0.30940731    -0.23000
C146        C  0.28538037  0.36819613  0.31524095     0.19200
C147        C  0.27503085  0.34562959  0.34449412     0.16400
C148        C  0.29962050  0.34711317  0.36840180    -0.18100
C149        C  0.24023764  0.32270270  0.34958250    -0.19900
C150        C  0.21626179  0.32213377  0.32585054    -0.12500
C151        C  0.22631108  0.34477504  0.29678839     0.04200
C152        C  0.26112102  0.36823198  0.29238422    -0.24600
H153        H  0.37055678  0.41071184  0.32828828     0.09300
H154        H  0.32833770  0.40822484  0.28694930     0.12900
H155        H  0.29186589  0.33077454  0.39158413     0.12800
H156        H  0.23158011  0.30512172  0.37173730     0.12600
H157        H  0.18973308  0.30356673  0.33010936     0.13100
H158        H  0.26962612  0.38730941  0.27210543     0.15100
C159        C  0.11555835  0.27192514  0.28739048    -0.04900
C160        C  0.09244953  0.27544190  0.30914418    -0.04900
C161        C  0.06930330  0.24841612  0.33032562    -0.23000
C162        C  0.06914620  0.21755742  0.33022968     0.19200
C163        C  0.09233332  0.21382175  0.30819781     0.16400
C164        C  0.11559393  0.24115466  0.28707880    -0.18100
C165        C  0.09206289  0.18292479  0.30795361    -0.19900
C166        C  0.06935609  0.15611861  0.32964212    -0.12500
C167        C  0.04649014  0.15970277  0.35187246     0.04200
C168        C  0.04654526  0.19055026  0.35212737    -0.24600
H169        H  0.09223623  0.29913961  0.30951231     0.09300
H170        H  0.05166118  0.25170167  0.34689359     0.12900
H171        H  0.13364857  0.23861341  0.27039708     0.12800
H172        H  0.10954816  0.17957005  0.29119653     0.12600
H173        H  0.06965963  0.13246767  0.32924351     0.13100
H174        H  0.02919548  0.19350227  0.36955271     0.15100
C175        C  0.23438262  0.35514780  0.21408046    -0.04900
C176        C  0.25713293  0.38972703  0.20765351    -0.04900
C177        C  0.28583575  0.39988387  0.18641605    -0.23000
C178        C  0.29094655  0.37552834  0.16920700     0.19200
C179        C  0.26665013  0.34065586  0.17317820     0.16400
C180        C  0.23873066  0.33058343  0.19615453    -0.18100
C181        C  0.27019375  0.31670420  0.15315977    -0.19900
C182        C  0.29779287  0.32719526  0.12996538    -0.12500
C183        C  0.32373509  0.36148806  0.12804585     0.04200
C184        C  0.31962059  0.38556825  0.14754699    -0.24600
H185        H  0.25291277  0.40890003  0.21975597     0.09300
H186        H  0.30362318  0.42676415  0.18282823     0.12900
H187        H  0.21999803  0.30389437  0.19942087     0.12800
H188        H  0.25115640  0.28998645  0.15469045     0.12600
H189        H  0.29813740  0.30838533  0.11299945     0.13100
H190        H  0.33880258  0.41224797  0.14589022     0.15100
C191        C  0.12225213  0.27285548  0.20386368    -0.04900
C192        C  0.13601761  0.27137165  0.17072084    -0.04900
C193        C  0.11710242  0.24535550  0.14651980    -0.23000
C194        C  0.08470821  0.21872400  0.15569898     0.19200
C195        C  0.07116703  0.21885198  0.18933774     0.16400
C196        C  0.08886030  0.24681841  0.21201564    -0.18100
C197        C  0.04069702  0.19042613  0.20029718    -0.19900
C198        C  0.02385776  0.16224467  0.17808676    -0.12500
C199        C  0.03486940  0.16298647  0.14283825     0.04200
C200        C  0.06588224  0.19171176  0.13212774    -0.24600
H201        H  0.16169144  0.29005302  0.16328169     0.09300
H202        H  0.12836588  0.24542975  0.12110284     0.12900
H203        H  0.07624662  0.24779630  0.23589870     0.12800
H204        H  0.03066176  0.18933318  0.22671361     0.12600
H205        H  0.00230546  0.13981206  0.18903721     0.13100
H206        H  0.07565647  0.19318859  0.10553774     0.15100
C207        C  0.36453690  0.32471446  0.12611167    -0.04900
C208        C  0.34422308  0.29328804  0.10947995    -0.04900
C209        C  0.33548417  0.26285446  0.12707328    -0.23000
C210        C  0.34897373  0.26341926  0.16056038     0.19200
C211        C  0.37203359  0.29505370  0.17598008     0.16400
C212        C  0.37914905  0.32547806  0.15899537    -0.18100
C213        C  0.38787518  0.29567674  0.20789425    -0.19900
C214        C  0.37983910  0.26535147  0.22514195    -0.12500
C215        C  0.35437788  0.23388636  0.21195428     0.04200
C216        C  0.33990087  0.23302063  0.17889051    -0.24600
H217        H  0.33452682  0.29238457  0.08308878     0.09300
H218        H  0.31859128  0.23891719  0.11428078     0.12900
H219        H  0.39651410  0.34976772  0.17092217     0.12800
H220        H  0.40640537  0.31960773  0.21958363     0.12600
H221        H  0.39258674  0.26656447  0.24971435     0.13100
H222        H  0.32093929  0.20888144  0.16793597     0.15100
C223        C  0.33682633  0.22681509  0.29156009    -0.04900
C224        C  0.32230381  0.24531717  0.27764753    -0.04900
C225        C  0.32668716  0.27441806  0.29465125    -0.23000
C226        C  0.34292307  0.28374914  0.32747973     0.19200
C227        C  0.35254366  0.26217127  0.34432347     0.16400
C228        C  0.35038478  0.23436553  0.32589902    -0.18100
C229        C  0.36502621  0.26941805  0.37886331    -0.19900
C230        C  0.36964127  0.29871333  0.39570167    -0.12500
C231        C  0.36452185  0.32298015  0.37748368     0.04200
C232        C  0.35045459  0.31464197  0.34327032    -0.24600
H233        H  0.30922657  0.23844265  0.25251553     0.09300
H234        H  0.31761021  0.28974164  0.28199591     0.12900
H235        H  0.36059882  0.21970230  0.33773578     0.12800
H236        H  0.37135215  0.25251546  0.39285816     0.12600
H237        H  0.37855399  0.30290981  0.42277846     0.13100
H238        H  0.34685561  0.33244562  0.32767156     0.15100
C239        C  0.46908054  0.12662803  0.35200749    -0.04900
C240        C  0.47923182  0.13610088  0.31638341    -0.04900
C241        C  0.46303604  0.14877906  0.29503022    -0.23000
C242        C  0.43423001  0.14914042  0.30760641     0.19200
C243        C  0.42189536  0.13670019  0.34197341     0.16400
C244        C  0.44009543  0.12707032  0.36437449    -0.18100
C245        C  0.39121703  0.13354585  0.35321324    -0.19900
C246        C  0.37230989  0.14150088  0.33023477    -0.12500
C247        C  0.38451217  0.15504149  0.29602069     0.04200
C248        C  0.41683292  0.16051851  0.28602348    -0.24600
H249        H  0.99977597  0.13389370  0.30484602     0.09300
H250        H  0.47221001  0.15697436  0.26815317     0.12900
H251        H  0.43140664  0.11974775  0.39151110     0.12800
H252        H  0.38102456  0.12349726  0.37938164     0.12600
H253        H  0.34783308  0.13622825  0.33971814     0.13100
H254        H  0.42879183  0.17331513  0.26150098     0.15100
C255        C  0.38863788  0.15983449  0.21167269    -0.04900
C256        C  0.40947726  0.18625893  0.18818313    -0.04900
C257        C  0.43177418  0.18292536  0.16523009    -0.23000
C258        C  0.43341617  0.15299527  0.16535285     0.19200
C259        C  0.41227036  0.12618968  0.18889209     0.16400
C260        C  0.38968284  0.12960687  0.21154173    -0.18100
C261        C  0.41389458  0.09630839  0.18921893    -0.19900
C262        C  0.43592321  0.09275739  0.16621898    -0.12500
C263        C  0.45683598  0.11906406  0.14260049     0.04200
C264        C  0.45552416  0.14920411  0.14218813    -0.24600
H265        H  0.40846894  0.20954355  0.18771270     0.09300
H266        H  0.44764197  0.20368397  0.14735788     0.12900
H267        H  0.37308205  0.10898029  0.22924508     0.12800
H268        H  0.39802118  0.07560983  0.20716413     0.12600
H269        H  0.43676911  0.06939684  0.16680858     0.13100
H270        H  0.47152286  0.16942427  0.12380059     0.15100
C271        C  0.16479000  0.04060739  0.36040608    -0.04900
C272        C  0.15856533  0.06143559  0.33769692    -0.04900
C273        C  0.18368884  0.08445299  0.31452004    -0.23000
C274        C  0.21545292  0.08671706  0.31304320     0.19200
C275        C  0.22176521  0.06525620  0.33495598     0.16400
C276        C  0.19672846  0.04300590  0.35907815    -0.18100
C277        C  0.25332751  0.06703188  0.33288816    -0.19900
C278        C  0.27847067  0.09009708  0.30972799    -0.12500
C279        C  0.27283581  0.11230609  0.28883034     0.04200
C280        C  0.24127816  0.11061087  0.29072076    -0.24600
H281        H  0.13432657  0.06041889  0.33858713     0.09300
H282        H  0.17831635  0.10064061  0.29789992     0.12900
H283        H  0.20279654  0.02881482  0.37770586     0.12800
H284        H  0.25860670  0.05062099  0.34924058     0.12600
H285        H  0.30255084  0.09088088  0.30835677     0.13100
H286        H  0.23714543  0.12854235  0.27580870     0.15100
C287        C  0.16428450  0.04801848  0.14386135    -0.04900
C288        C  0.16251011  0.07379816  0.16265205    -0.04900
C289        C  0.18998906  0.09768418  0.18215691    -0.23000
C290        C  0.21959116  0.09580595  0.18412620     0.19200
C291        C  0.22156530  0.06945063  0.16638816     0.16400
C292        C  0.19406412  0.04601607  0.14576191    -0.18100
C293        C  0.25110249  0.06726413  0.16957193    -0.19900
C294        C  0.27805511  0.09065826  0.19051049    -0.12500
C295        C  0.27591370  0.11667544  0.20804514     0.04200
C296        C  0.24711631  0.11972497  0.20392247    -0.24600
H297        H  0.13978243  0.07570421  0.16179998     0.09300
H298        H  0.18798562  0.11752378  0.19590263     0.12900
H299        H  0.19581515  0.02644670  0.13114345     0.12800
H300        H  0.25315591  0.04726380  0.15629251     0.12600
H301        H  0.30041655  0.08830164  0.19336054     0.13100
H302        H  0.24605368  0.14058595  0.21648879     0.15100
C303        C  0.33318446  0.16686688  0.78573286     0.45800
H304        H  0.33014302  0.16611286  0.81486563    -0.03300
C305        C  0.33747321  0.16921387  0.71694681     0.45800
H306        H  0.33910031  0.16985753  0.68749764    -0.03300
C307        C  0.30132240  0.13913197  0.76771093    -0.17000
C308        C  0.33855459  0.20038740  0.76971383    -0.16700
C309        C  0.36266444  0.16221856  0.77147859    -0.17100
C310        C  0.30339850  0.14054202  0.73141901    -0.17100
C311        C  0.34251229  0.20219662  0.73335769    -0.16600
C312        C  0.36441128  0.16357841  0.73467743    -0.17000
O313        O  0.06874482  0.10868251  0.96439769    -0.72700
O314        O  0.10871987  0.07094776  0.53663467    -0.73600
O315        O  0.10772277  0.07264496  0.96010519    -0.62300
O316        O  0.07018773  0.10775262  0.54132329    -0.70700
O317        O  0.02203951  0.06598025  0.52339683    -0.70200
O318        O  0.06767858  0.02389076  0.97960378    -0.61500
O319        O  0.05550591  0.03444698  0.54914946    -0.74000
O320        O  0.03318352  0.05481660  0.95360710    -0.72800
Cu321      Cu  0.09175585  0.09304276  0.00064246     1.04600
Cu322      Cu  0.04326192  0.04341822  0.00142310     1.04300
C323        C  0.04250757  0.08581376  0.94813988     0.93500
C324        C  0.08658831  0.04413065  0.55316320     0.92700
C325        C  0.09207223  0.03997475  0.95878985     0.84800
C326        C  0.03758446  0.09083838  0.54354374     0.91100
O327        O  0.39102246  0.45993678  0.96301247    -0.72700
O328        O  0.43191873  0.04081102  0.53256914    -0.73600
O329        O  0.43103053  0.03617480  0.95540816    -0.62300
O330        O  0.39155006  0.46431926  0.53926061    -0.70700
O331        O  0.43289206  0.45677481  0.52275428    -0.70200
O332        O  0.47890735  0.04200623  0.97300770    -0.61500
O333        O  0.46841300  0.02421124  0.54445637    -0.74000
O334        O  0.44394581  0.47533337  0.95155492    -0.72800
Cu335      Cu  0.40863380  0.50053483  0.99747780     1.04600
Cu336      Cu  0.45726753  0.99954780  0.99804395     1.04300
C337        C  0.41275132  0.45382807  0.94804333     0.93500
C338        C  0.45876422  0.04576033  0.54873006     0.92700
C339        C  0.46363460  0.05135030  0.95258880     0.84800
C340        C  0.40736637  0.44759430  0.54202711     0.91100
O341        O  0.46025478  0.39322963  0.53763296    -0.72700
O342        O  0.04188065  0.43347915  0.96860377    -0.73600
O343        O  0.03649474  0.43221826  0.54542679    -0.62300
O344        O  0.46520421  0.39469753  0.96182345    -0.70700
O345        O  0.45930084  0.43776536  0.97535423    -0.70200
O346        O  0.04138855  0.48026788  0.52935805    -0.61500
O347        O  0.02723029  0.47149163  0.95668298    -0.74000
O348        O  0.47323470  0.44585265  0.54753386    -0.72800
Cu349      Cu  0.50104758  0.41079006  0.50344616     1.04600
Cu350      Cu  0.00035904  0.46011442  0.00218921     1.04300
C351        C  0.45264406  0.41426177  0.55160088     0.93500
C352        C  0.04821233  0.46108338  0.95280391     0.92700
C353        C  0.05139333  0.46479824  0.54873075     0.84800
C354        C  0.44935877  0.41131111  0.95764796     0.91100
C355        C  0.47896575  0.11376886  0.61777807     0.02600
C356        C  0.01511247  0.13369612  0.61766721     0.02500
C357        C  0.03305439  0.12507061  0.59300510    -0.18000
C358        C  0.01647576  0.09773807  0.56924137     0.02600
C359        C  0.47984059  0.07704265  0.57086681     0.02500
C360        C  0.46227507  0.08633910  0.59440704    -0.18000
H361        H  0.43478035  0.07129620  0.59522846     0.04600
H362        H  0.06049641  0.13921963  0.59277487     0.04600
C363        C  0.37472671  0.35683057  0.60667725     0.02600
C364        C  0.35501189  0.37306096  0.60568781     0.02500
C365        C  0.36679571  0.40287079  0.58484282    -0.18000
C366        C  0.39794405  0.41759689  0.56630540     0.02600
C367        C  0.41891334  0.40204693  0.56992934     0.02500
C368        C  0.40617937  0.37175316  0.58931591    -0.18000
H369        H  0.42120010  0.35938416  0.59112242     0.04600
H370        H  0.35123521  0.41458753  0.58274235     0.04600
C371        C  0.48793750  0.11584942  0.87646470     0.02600
C372        C  0.02393116  0.13149433  0.87606652     0.02500
C373        C  0.03996742  0.12067812  0.89993703    -0.18000
C374        C  0.02180922  0.09473701  0.92449555     0.02600
C375        C  0.48519128  0.07887242  0.92602330     0.02500
C376        C  0.46927342  0.08948631  0.90141818    -0.18000
H377        H  0.44184146  0.07668903  0.90156503     0.04600
H378        H  0.06743713  0.13286516  0.89937166     0.04600
C379        C  0.36089329  0.37731256  0.88947669     0.02600
C380        C  0.37676357  0.35732837  0.89387931     0.02500
C381        C  0.40633597  0.37059588  0.91499099    -0.18000
C382        C  0.41937811  0.40131609  0.93340730     0.02600
C383        C  0.40237240  0.42083608  0.92946227     0.02500
C384        C  0.37366513  0.40810701  0.90790648    -0.18000
H385        H  0.36144639  0.42314057  0.90444924     0.04600
H386        H  0.41993407  0.35685503  0.91707694     0.04600
C387        C  0.13870320  0.01966761  0.88768521     0.02600
C388        C  0.12197491  0.48361425  0.88912425     0.02500
C389        C  0.09302262  0.46574049  0.91084995    -0.18000
C390        C  0.08070311  0.48258829  0.93210684     0.02600
C391        C  0.10027472  0.01940976  0.93373848     0.02500
C392        C  0.12817941  0.03683676  0.91082957    -0.18000
H393        H  0.14184876  0.06440231  0.91055688     0.04600
H394        H  0.07961455  0.43817771  0.91080541     0.04600
C395        C  0.13541705  0.02516848  0.62062066     0.02600
C396        C  0.11870896  0.48903320  0.62138200     0.02500
C397        C  0.09139660  0.47030121  0.59779094    -0.18000
C398        C  0.07991782  0.48628714  0.57416234     0.02600
C399        C  0.09642221  0.02307804  0.57513232     0.02500
C400        C  0.12410241  0.04120213  0.59728042    -0.18000
H401        H  0.13695716  0.06877388  0.59673567     0.04600
H402        H  0.07836377  0.44278765  0.59826354     0.04600
C403        C  0.17064206  0.33715448  0.71545264     0.46400
H404        H  0.17466227  0.33910822  0.68639776    -0.03300
C405        C  0.16442763  0.33477206  0.78389937     0.45800
H406        H  0.16137870  0.33368207  0.81322771    -0.03300
C407        C  0.14303427  0.30179116  0.72901225    -0.17000
C408        C  0.20322787  0.34522601  0.73493221    -0.16700
C409        C  0.16041776  0.36240280  0.72992359    -0.17100
C410        C  0.13995782  0.30106832  0.76560213    -0.17100
C411        C  0.20016547  0.34329020  0.77139478    -0.16600
C412        C  0.15710952  0.36104469  0.76643375    -0.17000
C413        C  0.12878428  0.47004011  0.64629669    -0.04900
C414        C  0.13705008  0.48001123  0.68193900    -0.04900
C415        C  0.14825884  0.46315978  0.70430646    -0.23000
C416        C  0.14864848  0.43418473  0.69244328     0.19200
C417        C  0.13771029  0.42228438  0.65774587     0.16400
C418        C  0.12925826  0.44094432  0.63454204    -0.18100
C419        C  0.13449474  0.39139831  0.64708150    -0.19900
C420        C  0.14102532  0.37195902  0.67092727    -0.12500
C421        C  0.15340844  0.38403250  0.70519575     0.04200
C422        C  0.15856319  0.41618700  0.71503531    -0.24600
H423        H  0.13501230  0.50096223  0.69262358     0.09300
H424        H  0.15538676  0.47202541  0.73127949     0.12900
H425        H  0.12265645  0.43249289  0.60738253     0.12800
H426        H  0.12547091  0.38151646  0.62077112     0.12600
H427        H  0.13563762  0.34707550  0.66238723     0.13100
H428        H  0.16951054  0.42704687  0.74044078     0.15100
C429        C  0.13366318  0.46344700  0.86871545    -0.04900
C430        C  0.16222542  0.46204384  0.87998747    -0.04900
C431        C  0.17257617  0.44175854  0.86228171    -0.23000
C432        C  0.15348067  0.42108407  0.83404003     0.19200
C433        C  0.12350189  0.42074845  0.82380334     0.16400
C434        C  0.11395265  0.44216835  0.84098779    -0.18100
C435        C  0.10347303  0.39876856  0.79676519    -0.19900
C436        C  0.11362890  0.37821631  0.77925563    -0.12500
C437        C  0.14442378  0.37994249  0.78776163     0.04200
C438        C  0.16376394  0.40068659  0.81593645    -0.24600
H439        H  0.17629684  0.97634060  0.90295385     0.09300
H440        H  0.19515066  0.44177192  0.87109418     0.12900
H441        H  0.09101926  0.44200237  0.83322688     0.12800
H442        H  0.08012698  0.39767788  0.78896443     0.12600
H443        H  0.09800289  0.36173453  0.75815494     0.13100
H444        H  0.18722144  0.40162341  0.82303754     0.15100
C445        C  0.33431032  0.37081561  0.86281976    -0.04900
C446        C  0.34404158  0.39222556  0.83291754    -0.04900
C447        C  0.31994700  0.39097872  0.80940769    -0.23000
C448        C  0.28538032  0.36819611  0.81524103     0.19200
C449        C  0.27503085  0.34562918  0.84449388     0.16400
C450        C  0.29962050  0.34711276  0.86840155    -0.18100
C451        C  0.24023769  0.32270194  0.84958196    -0.19900
C452        C  0.21626182  0.32213307  0.82585006    -0.12500
C453        C  0.22631108  0.34477472  0.79678825     0.04200
C454        C  0.26112096  0.36823197  0.79238434    -0.24600
H455        H  0.37055665  0.41071245  0.82828886     0.09300
H456        H  0.32833756  0.40822547  0.78694992     0.12900
H457        H  0.29186592  0.33077382  0.89158366     0.12800
H458        H  0.23158019  0.30512065  0.87173651     0.12600
H459        H  0.18973314  0.30356583  0.83010864     0.13100
H460        H  0.26962596  0.38730964  0.77210577     0.15100
C461        C  0.11555831  0.27192503  0.78739025    -0.04900
C462        C  0.09244927  0.27544173  0.80914365    -0.04900
C463        C  0.06930300  0.24841597  0.83032509    -0.23000
C464        C  0.06914611  0.21755737  0.83022947     0.19200
C465        C  0.09233342  0.21382175  0.80819788     0.16400
C466        C  0.11559403  0.24115463  0.78707882    -0.18100
C467        C  0.09206321  0.18292489  0.80795404    -0.19900
C468        C  0.06935639  0.15611876  0.82964261    -0.12500
C469        C  0.04649025  0.15970287  0.85187267     0.04200
C470        C  0.04654519  0.19055028  0.85212724    -0.24600
H471        H  0.09223585  0.29913937  0.80951157     0.09300
H472        H  0.05166072  0.25170147  0.84689282     0.12900
H473        H  0.13364882  0.23861343  0.77039731     0.12800
H474        H  0.10954864  0.17957019  0.79119720     0.12600
H475        H  0.06966009  0.13246789  0.82924424     0.13100
H476        H  0.02919529  0.19350228  0.86955237     0.15100
C477        C  0.23438270  0.35514765  0.71408046    -0.04900
C478        C  0.25713305  0.38972683  0.70765350    -0.04900
C479        C  0.28583588  0.39988365  0.68641603    -0.23000
C480        C  0.29094663  0.37552805  0.66920703     0.19200
C481        C  0.26665023  0.34065559  0.67317831     0.16400
C482        C  0.23873074  0.33058320  0.69615464    -0.18100
C483        C  0.27019381  0.31670388  0.65315995    -0.19900
C484        C  0.29779289  0.32719490  0.62996546    -0.12500
C485        C  0.32373507  0.36148771  0.62804581     0.04200
C486        C  0.31962064  0.38556795  0.64754695    -0.24600
H487        H  0.25291292  0.40889990  0.71975591     0.09300
H488        H  0.30362328  0.42676384  0.68282816     0.12900
H489        H  0.21999814  0.30389422  0.69942102     0.12800
H490        H  0.25115652  0.28998617  0.65469070     0.12600
H491        H  0.29813737  0.30838495  0.61299958     0.13100
H492        H  0.33880257  0.41224760  0.64589013     0.15100
C493        C  0.12225222  0.27285554  0.70386349    -0.04900
C494        C  0.13601776  0.27137171  0.67072069    -0.04900
C495        C  0.11710260  0.24535563  0.64651958    -0.23000
C496        C  0.08470830  0.21872420  0.65569864     0.19200
C497        C  0.07116705  0.21885218  0.68933736     0.16400
C498        C  0.08886035  0.24681852  0.71201535    -0.18100
C499        C  0.04069693  0.19042640  0.70029668    -0.19900
C500        C  0.02385767  0.16224500  0.67808620    -0.12500
C501        C  0.03486937  0.16298679  0.64283774     0.04200
C502        C  0.06588232  0.19171203  0.63212733    -0.24600
H503        H  0.16169166  0.29005306  0.66328163     0.09300
H504        H  0.12836611  0.24542987  0.62110266     0.12900
H505        H  0.07624665  0.24779639  0.73589841     0.12800
H506        H  0.03066161  0.18933345  0.72671306     0.12600
H507        H  0.00230529  0.13981239  0.68903662     0.13100
H508        H  0.07565662  0.19318885  0.60553735     0.15100
C509        C  0.36453683  0.32471410  0.62611138    -0.04900
C510        C  0.34422300  0.29328763  0.60947973    -0.04900
C511        C  0.33548409  0.26285410  0.62707316    -0.23000
C512        C  0.34897367  0.26341900  0.66056026     0.19200
C513        C  0.37203357  0.29505349  0.67597987     0.16400
C514        C  0.37914901  0.32547778  0.65899507    -0.18100
C515        C  0.38787518  0.29567662  0.70789404    -0.19900
C516        C  0.37983913  0.26535142  0.72514186    -0.12500
C517        C  0.35437788  0.23388628  0.71195427     0.04200
C518        C  0.33990084  0.23302044  0.67889051    -0.24600
H519        H  0.33452670  0.29238410  0.58308856     0.09300
H520        H  0.31859116  0.23891678  0.61428072     0.12900
H521        H  0.39651409  0.34976751  0.67092181     0.12800
H522        H  0.40640542  0.31960767  0.71958336     0.12600
H523        H  0.39258678  0.26656448  0.74971424     0.13100
H524        H  0.32093921  0.20888119  0.66793604     0.15100
C525        C  0.33682642  0.22681513  0.79156013    -0.04900
C526        C  0.32230396  0.24531725  0.77764754    -0.04900
C527        C  0.32668730  0.27441813  0.79465125    -0.23000
C528        C  0.34292313  0.28374917  0.82747978     0.19200
C529        C  0.35254365  0.26217126  0.84432356     0.16400
C530        C  0.35038479  0.23436553  0.82589910    -0.18100
C531        C  0.36502609  0.26941798  0.87886344    -0.19900
C532        C  0.36964112  0.29871324  0.89570182    -0.12500
C533        C  0.36452177  0.32298011  0.87748381     0.04200
C534        C  0.35045463  0.31464198  0.84327040    -0.24600
H535        H  0.30922675  0.23844275  0.75251551     0.09300
H536        H  0.31761040  0.28974174  0.78199590     0.12900
H537        H  0.36059880  0.21970228  0.83773589     0.12800
H538        H  0.37135197  0.25251536  0.89285832     0.12600
H539        H  0.37855377  0.30290969  0.92277863     0.13100
H540        H  0.34685572  0.33244570  0.82767162     0.15100
C541        C  0.46908097  0.12662839  0.85200757    -0.04900
C542        C  0.47923223  0.13610124  0.81638349    -0.04900
C543        C  0.46303640  0.14877937  0.79503029    -0.23000
C544        C  0.43423035  0.14914070  0.80760650     0.19200
C545        C  0.42189575  0.13670051  0.84197351     0.16400
C546        C  0.44009586  0.12707067  0.86437459    -0.18100
C547        C  0.39121744  0.13354620  0.85321338    -0.19900
C548        C  0.37231024  0.14150120  0.83023493    -0.12500
C549        C  0.38451245  0.15504170  0.79602079     0.04200
C550        C  0.41683321  0.16051873  0.78602355    -0.24600
H551        H  0.99977576  0.13389338  0.80484635     0.09300
H552        H  0.47221033  0.15697464  0.76815324     0.12900
H553        H  0.43140709  0.11974811  0.89151120     0.12800
H554        H  0.38102502  0.12349767  0.87938181     0.12600
H555        H  0.34783352  0.13622864  0.83971835     0.13100
H556        H  0.42879207  0.17331532  0.76150104     0.15100
C557        C  0.38863806  0.15983460  0.71167279    -0.04900
C558        C  0.40947735  0.18625898  0.68818313    -0.04900
C559        C  0.43177426  0.18292542  0.66523008    -0.23000
C560        C  0.43341634  0.15299538  0.66535293     0.19200
C561        C  0.41227064  0.12618984  0.68889229     0.16400
C562        C  0.38968312  0.12960703  0.71154191    -0.18100
C563        C  0.41389496  0.09630862  0.68921925    -0.19900
C564        C  0.43592355  0.09275758  0.66621926    -0.12500
C565        C  0.45683618  0.11906418  0.64260063     0.04200
C566        C  0.45552429  0.14920420  0.64218819    -0.24600
H567        H  0.40846896  0.20954357  0.68771262     0.09300
H568        H  0.44764197  0.20368398  0.64735779     0.12900
H569        H  0.37308240  0.10898048  0.72924534     0.12800
H570        H  0.39802166  0.07561010  0.70716454     0.12600
H571        H  0.43676951  0.06939708  0.66680892     0.13100
H572        H  0.47152290  0.16942430  0.62380054     0.15100
C573        C  0.16479046  0.04060754  0.86040660    -0.04900
C574        C  0.15856554  0.06143535  0.83769710    -0.04900
C575        C  0.18368896  0.08445265  0.81452008    -0.23000
C576        C  0.21545316  0.08671699  0.81304341     0.19200
C577        C  0.22176571  0.06525654  0.83495658     0.16400
C578        C  0.19672908  0.04300642  0.85907892    -0.18100
C579        C  0.25332811  0.06703244  0.83288888    -0.19900
C580        C  0.27847111  0.09009744  0.80972847    -0.12500
C581        C  0.27283602  0.11230609  0.78883046     0.04200
C582        C  0.24127828  0.11061066  0.79072077    -0.24600
H583        H  0.13432668  0.06041839  0.83858713     0.09300
H584        H  0.17831626  0.10063997  0.79789964     0.12900
H585        H  0.20279735  0.02881565  0.87770699     0.12800
H586        H  0.25860750  0.05062184  0.84924162     0.12600
H587        H  0.30255135  0.09088138  0.80835733     0.13100
H588        H  0.23714537  0.12854194  0.77580848     0.15100
C589        C  0.16428467  0.04801864  0.64386119    -0.04900
C590        C  0.16251020  0.07379820  0.66265205    -0.04900
C591        C  0.18998914  0.09768419  0.68215696    -0.23000
C592        C  0.21959130  0.09580607  0.68412612     0.19200
C593        C  0.22156553  0.06945089  0.66638784     0.16400
C594        C  0.19406436  0.04601637  0.64576157    -0.18100
C595        C  0.25110280  0.06726453  0.66957144    -0.19900
C596        C  0.27805538  0.09065854  0.69051012    -0.12500
C597        C  0.27591383  0.11667551  0.70804511     0.04200
C598        C  0.24711641  0.11972500  0.70392250    -0.24600
H599        H  0.13978248  0.07570417  0.66180010     0.09300
H600        H  0.18798563  0.11752371  0.69590287     0.12900
H601        H  0.19581545  0.02644707  0.63114295     0.12800
H602        H  0.25315633  0.04726431  0.65629176     0.12600
H603        H  0.30041686  0.08830201  0.69336002     0.13100
H604        H  0.24605373  0.14058594  0.71648896     0.15100
C605        C  0.33319137  0.66687144  0.28573316     0.45800
H606        H  0.33015449  0.66612112  0.31486622    -0.03300
C607        C  0.33746844  0.66921211  0.21694654     0.45800
H608        H  0.33909038  0.66985286  0.18749713    -0.03300
C609        C  0.30132492  0.63913557  0.26771765    -0.17000
C610        C  0.33856067  0.70039132  0.26971248    -0.16700
C611        C  0.36266836  0.66221980  0.27147367    -0.17100
C612        C  0.30339541  0.64054264  0.23142544    -0.17100
C613        C  0.34251237  0.70219711  0.23335572    -0.16600
C614        C  0.36440890  0.66357699  0.23467194    -0.17000
O615        O  0.06874444  0.60867485  0.46438661    -0.72700
O616        O  0.10871956  0.57094500  0.03663136    -0.73600
O617        O  0.10772170  0.57263709  0.46010102    -0.62300
O618        O  0.07018950  0.60775292  0.04131396    -0.70700
O619        O  0.02204100  0.56597895  0.02339072    -0.70200
O620        O  0.06767744  0.52388386  0.47960194    -0.61500
O621        O  0.05550558  0.53444466  0.04914682    -0.74000
O622        O  0.03318302  0.55480783  0.45360147    -0.72800
Cu623      Cu  0.09175589  0.59303820  0.50063525     1.04600
Cu624      Cu  0.04326183  0.54341356  0.50141918     1.04300
C625        C  0.04250747  0.58580438  0.44812968     0.93500
C626        C  0.08658799  0.54412867  0.05316118     0.92700
C627        C  0.09207077  0.53996689  0.45878729     0.84800
C628        C  0.03758634  0.59083937  0.04353500     0.91100
O629        O  0.39102150  0.95994221  0.46301186    -0.72700
O630        O  0.43192021  0.54081239  0.03255956    -0.73600
O631        O  0.43103037  0.53616732  0.45539932    -0.62300
O632        O  0.39154716  0.96431910  0.03926056    -0.70700
O633        O  0.43288818  0.95677413  0.02275152    -0.70200
O634        O  0.47890765  0.54200203  0.47300159    -0.61500
O635        O  0.46841473  0.52421434  0.04445189    -0.74000
O636        O  0.44394513  0.97534046  0.45155407    -0.72800
Cu637      Cu  0.40863228  0.00053749  0.49748230     1.04600
Cu638      Cu  0.45726908  0.49954595  0.49804243     1.04300
C639        C  0.41275097  0.95383499  0.44804143     0.93500
C640        C  0.45876618  0.54576412  0.04872108     0.92700
C641        C  0.46363444  0.55134282  0.45257943     0.84800
C642        C  0.40736269  0.94759335  0.04202478     0.91100
O643        O  0.46025360  0.89323196  0.03762920    -0.72700
O644        O  0.04188154  0.93348648  0.46860151    -0.73600
O645        O  0.03649405  0.93222051  0.04542420    -0.62300
O646        O  0.46520630  0.89470636  0.46181954    -0.70700
O647        O  0.45930218  0.93777342  0.47535228    -0.70200
O648        O  0.04138723  0.98027075  0.02935918    -0.61500
O649        O  0.02723147  0.97149967  0.45668364    -0.74000
O650        O  0.47323167  0.94585400  0.04753308    -0.72800
Cu651      Cu  0.50104773  0.91079529  0.00344305     1.04600
Cu652      Cu  0.00035872  0.96011959  0.50218932     1.04300
C653        C  0.45264143  0.91426261  0.05159828     0.93500
C654        C  0.04821335  0.96109137  0.45280314     0.92700
C655        C  0.05139248  0.96480025  0.04872990     0.84800
C656        C  0.44936135  0.91132043  0.45764437     0.91100
C657        C  0.47896762  0.61378015  0.11775993     0.02600
C658        C  0.01511465  0.63370405  0.11765321     0.02500
C659        C  0.03305679  0.62507674  0.09299273    -0.18000
C660        C  0.01647805  0.59774287  0.06922995     0.02600
C661        C  0.47984293  0.57704957  0.07085367     0.02500
C662        C  0.46227727  0.58635046  0.09438865    -0.18000
H663        H  0.43478243  0.57130937  0.09520778     0.04600
H664        H  0.06049880  0.63922432  0.09276424     0.04600
C665        C  0.37472073  0.85682749  0.10667122     0.02600
C666        C  0.35500566  0.87305794  0.10568184     0.02500
C667        C  0.36679026  0.90286798  0.08483700    -0.18000
C668        C  0.39793959  0.91759499  0.06630132     0.02600
C669        C  0.41890924  0.90204561  0.06992542     0.02500
C670        C  0.40617424  0.87175085  0.08931065    -0.18000
H671        H  0.42119507  0.85938202  0.09111722     0.04600
H672        H  0.35122976  0.91458457  0.08273550     0.04600
C673        C  0.48793730  0.61583278  0.37644557     0.02600
C674        C  0.02393120  0.63147625  0.37604577     0.02500
C675        C  0.03996752  0.62066130  0.39991783    -0.18000
C676        C  0.02180939  0.59472452  0.42448102     0.02600
C677        C  0.48519089  0.57886091  0.42600975     0.02500
C678        C  0.46927306  0.58947228  0.40140169    -0.18000
H679        H  0.44184119  0.57667656  0.40154954     0.04600
H680        H  0.06743713  0.63284759  0.39935186     0.04600
C681        C  0.36089908  0.87732054  0.38947030     0.02600
C682        C  0.37677279  0.85733934  0.39387131     0.02500
C683        C  0.40634492  0.87060884  0.41498276    -0.18000
C684        C  0.41938244  0.90132656  0.43340217     0.02600
C685        C  0.40237409  0.92084420  0.42945851     0.02500
C686        C  0.37366758  0.90811409  0.40790132    -0.18000
H687        H  0.36144670  0.92314569  0.40444444     0.04600
H688        H  0.41994622  0.85687102  0.41706678     0.04600
C689        C  0.13869972  0.51965818  0.38768253     0.02600
C690        C  0.12197651  0.98362323  0.38912357     0.02500
C691        C  0.09302340  0.96574925  0.41084821    -0.18000
C692        C  0.08070419  0.98259680  0.43210629     0.02600
C693        C  0.10027261  0.51940125  0.43373653     0.02500
C694        C  0.12817583  0.53682784  0.41082565    -0.18000
H695        H  0.14184428  0.56439354  0.41055075     0.04600
H696        H  0.07961465  0.93818661  0.41080215     0.04600
C697        C  0.13541401  0.52516920  0.12062552     0.02600
C698        C  0.11871050  0.98903215  0.12137773     0.02500
C699        C  0.09139679  0.97030106  0.09778782    -0.18000
C700        C  0.07991775  0.98628802  0.07416095     0.02600
C701        C  0.09642157  0.52307704  0.07513269     0.02500
C702        C  0.12410032  0.54120197  0.09728254    -0.18000
H703        H  0.13695480  0.56877360  0.09673635     0.04600
H704        H  0.07836254  0.94278749  0.09826036     0.04600
C705        C  0.17063828  0.83715421  0.21545532     0.46400
H706        H  0.17465654  0.83910803  0.18639998    -0.03300
C707        C  0.16442647  0.83477341  0.28390217     0.45800
H708        H  0.16137796  0.83368425  0.31323047    -0.03300
C709        C  0.14303337  0.80179025  0.22901583    -0.17000
C710        C  0.20322572  0.84522860  0.23493298    -0.16700
C711        C  0.16041217  0.86240077  0.22992664    -0.17100
C712        C  0.13995800  0.80106773  0.26560587    -0.17100
C713        C  0.20016523  0.84329391  0.27139612    -0.16600
C714        C  0.15710557  0.86104448  0.26643676    -0.17000
C715        C  0.12878491  0.97003853  0.14629305    -0.04900
C716        C  0.13705721  0.98001417  0.18193354    -0.04900
C717        C  0.14826562  0.96316272  0.20430113    -0.23000
C718        C  0.14864744  0.93418294  0.19244141     0.19200
C719        C  0.13770097  0.92227718  0.15774708     0.16400
C720        C  0.12925032  0.94093731  0.13454204    -0.18100
C721        C  0.13447659  0.89138622  0.14708739    -0.19900
C722        C  0.14100830  0.87194852  0.17093417    -0.12500
C723        C  0.15340046  0.88402799  0.20519859     0.04200
C724        C  0.15856235  0.91618585  0.21503376    -0.24600
H725        H  0.13502405  0.00096795  0.19261702     0.09300
H726        H  0.15539925  0.97203236  0.23127254     0.12900
H727        H  0.12264312  0.93248172  0.10738412     0.12800
H728        H  0.12544580  0.88149988  0.12077958     0.12600
H729        H  0.13561557  0.84706218  0.16239868     0.13100
H730        H  0.16951544  0.92704876  0.24043703     0.15100
C731        C  0.13366483  0.96345571  0.36871441    -0.04900
C732        C  0.16222323  0.96204719  0.37999052    -0.04900
C733        C  0.17257330  0.94176087  0.36228539    -0.23000
C734        C  0.15347997  0.92108919  0.33404107     0.19200
C735        C  0.12350472  0.92075878  0.32380016     0.16400
C736        C  0.11395713  0.94218089  0.34098306    -0.18100
C737        C  0.10347691  0.89878064  0.29676045    -0.19900
C738        C  0.11362967  0.87822423  0.27925433    -0.12500
C739        C  0.14442160  0.87994520  0.28776387     0.04200
C740        C  0.16376114  0.90068858  0.31593973    -0.24600
H741        H  0.17629963  0.47633901  0.40294897     0.09300
H742        H  0.19514518  0.94177058  0.37110119     0.12900
H743        H  0.09102626  0.94201862  0.33321880     0.12800
H744        H  0.08013335  0.89769383  0.28895632     0.12600
H745        H  0.09800378  0.86174347  0.25815302     0.13100
H746        H  0.18721648  0.90162199  0.32304384     0.15100
C747        C  0.33431523  0.87082071  0.36281403    -0.04900
C748        C  0.34404685  0.89222026  0.33290339    -0.04900
C749        C  0.31995154  0.89097047  0.30939267    -0.23000
C750        C  0.28538412  0.86819685  0.31523391     0.19200
C751        C  0.27503437  0.84564110  0.34449678     0.16400
C752        C  0.29962467  0.84712699  0.36840467    -0.18100
C753        C  0.24024074  0.82272278  0.34959368    -0.19900
C754        C  0.21626409  0.82215078  0.32586112    -0.12500
C755        C  0.22631314  0.84478176  0.29678927     0.04200
C756        C  0.26112402  0.86822983  0.29237693    -0.24600
H757        H  0.37056263  0.91070057  0.32826855     0.09300
H758        H  0.32834251  0.90820903  0.28692696     0.12900
H759        H  0.29187002  0.83079666  0.39159429     0.12800
H760        H  0.23158289  0.80514963  0.37175652     0.12600
H761        H  0.18973505  0.80358919  0.33012712     0.13100
H762        H  0.26963141  0.88730183  0.27208799     0.15100
C763        C  0.11556183  0.77192203  0.28739403    -0.04900
C764        C  0.09245307  0.77543502  0.30915161    -0.04900
C765        C  0.06930629  0.74840535  0.33032858    -0.23000
C766        C  0.06914837  0.71754625  0.33022421     0.19200
C767        C  0.09233655  0.71381466  0.30819006     0.16400
C768        C  0.11559809  0.74115171  0.28707585    -0.18100
C769        C  0.09206556  0.68291732  0.30793838    -0.19900
C770        C  0.06935725  0.65610691  0.32962198    -0.12500
C771        C  0.04648994  0.65968709  0.35185405     0.04200
C772        C  0.04654536  0.69053464  0.35211590    -0.24600
H773        H  0.09223927  0.79913244  0.30952523     0.09300
H774        H  0.05166371  0.75168788  0.34689898     0.12900
H775        H  0.13365288  0.73861325  0.27039155     0.12800
H776        H  0.10955172  0.67956563  0.29117955     0.12600
H777        H  0.06966099  0.63245614  0.32921861     0.13100
H778        H  0.02919494  0.69348370  0.36954310     0.15100
C779        C  0.23437889  0.85514986  0.21407767    -0.04900
C780        C  0.25712592  0.88972876  0.20764425    -0.04900
C781        C  0.28582664  0.89988475  0.18640322    -0.23000
C782        C  0.29093866  0.87552835  0.16919775     0.19200
C783        C  0.26664485  0.84065584  0.17317495     0.16400
C784        C  0.23872746  0.83058453  0.19615427    -0.18100
C785        C  0.27018931  0.81670288  0.15316004    -0.19900
C786        C  0.29778746  0.82719235  0.12996425    -0.12500
C787        C  0.32372837  0.86148567  0.12803995     0.04200
C788        C  0.31961195  0.88556725  0.14753649    -0.24600
H789        H  0.25290542  0.90890205  0.21974486     0.09300
H790        H  0.30361181  0.92676493  0.18281071     0.12900
H791        H  0.21999701  0.80389545  0.19942533     0.12800
H792        H  0.25115352  0.78998470  0.15469473     0.12600
H793        H  0.29813202  0.80838111  0.11300160     0.13100
H794        H  0.33879229  0.91224723  0.14587614     0.15100
C795        C  0.12225344  0.77285368  0.20386685    -0.04900
C796        C  0.13602060  0.77137210  0.17072424    -0.04900
C797        C  0.11710696  0.74535778  0.14652084    -0.23000
C798        C  0.08471197  0.71872580  0.15569680     0.19200
C799        C  0.07116917  0.71885064  0.18933564     0.16400
C800        C  0.08886177  0.74681484  0.21201702    -0.18100
C801        C  0.04069743  0.69042445  0.20029087    -0.19900
C802        C  0.02385744  0.66224644  0.17807585    -0.12500
C803        C  0.03487139  0.66299161  0.14282763     0.04200
C804        C  0.06588657  0.69171651  0.13212178    -0.24600
H805        H  0.16169468  0.79005441  0.16328667     0.09300
H806        H  0.12837173  0.74543435  0.12110406     0.12900
H807        H  0.07624752  0.74779035  0.23590072     0.12800
H808        H  0.03066061  0.68932878  0.22670702     0.12600
H809        H  0.00230289  0.63981354  0.18902271     0.13100
H810        H  0.07566266  0.69319541  0.10553233     0.15100
C811        C  0.36453139  0.82471117  0.12610574    -0.04900
C812        C  0.34421612  0.79328409  0.10947561    -0.04900
C813        C  0.33547769  0.76285099  0.12706993    -0.23000
C814        C  0.34896959  0.76341672  0.16055597     0.19200
C815        C  0.37203159  0.79505170  0.17597322     0.16400
C816        C  0.37914617  0.82547554  0.15898796    -0.18100
C817        C  0.38787616  0.79567577  0.20788554    -0.19900
C818        C  0.37984078  0.76535120  0.22513428    -0.12500
C819        C  0.35437709  0.73388567  0.21194997     0.04200
C820        C  0.33989722  0.73301875  0.17888753    -0.24600
H821        H  0.33451804  0.79237981  0.08308518     0.09300
H822        H  0.31858326  0.73891322  0.11427892     0.12900
H823        H  0.39651275  0.84976564  0.17091327     0.12800
H824        H  0.40640827  0.81960722  0.21957277     0.12600
H825        H  0.39259097  0.76656520  0.24970513     0.13100
H826        H  0.32093378  0.70887918  0.16793512     0.15100
C827        C  0.33683603  0.72682152  0.29155781    -0.04900
C828        C  0.32231096  0.74532168  0.27764610    -0.04900
C829        C  0.32669551  0.77442364  0.29464808    -0.23000
C830        C  0.34293490  0.78375801  0.32747437     0.19200
C831        C  0.35255948  0.76218281  0.34431753     0.16400
C832        C  0.35039960  0.73437606  0.32589431    -0.18100
C833        C  0.36504537  0.76943267  0.37885581    -0.19900
C834        C  0.36965843  0.79872733  0.39569371    -0.12500
C835        C  0.36453418  0.82299143  0.37747609     0.04200
C836        C  0.35046477  0.81465051  0.34326412    -0.24600
H837        H  0.30923027  0.73844431  0.25251626     0.09300
H838        H  0.31761569  0.78974539  0.28199311     0.12900
H839        H  0.36061592  0.71971423  0.33773049     0.12800
H840        H  0.37137463  0.75253208  0.39285059     0.12600
H841        H  0.37857265  0.80292525  0.42276984     0.13100
H842        H  0.34686164  0.83245212  0.32766528     0.15100
C843        C  0.46908155  0.62661311  0.35198899    -0.04900
C844        C  0.47922956  0.63608173  0.31636350    -0.04900
C845        C  0.46303328  0.64875983  0.29501028    -0.23000
C846        C  0.43423174  0.64912857  0.30759001     0.19200
C847        C  0.42190236  0.63669567  0.34196014     0.16400
C848        C  0.44010136  0.62706287  0.36435933    -0.18100
C849        C  0.39123046  0.63355241  0.35320625    -0.19900
C850        C  0.37232359  0.64151066  0.33023103    -0.12500
C851        C  0.38451894  0.65504203  0.29601244     0.04200
C852        C  0.41683476  0.66050845  0.28600836    -0.24600
H853        H  0.99977191  0.63387139  0.30482519     0.09300
H854        H  0.47220381  0.65695048  0.26813174     0.12900
H855        H  0.43141626  0.61974477  0.39149738     0.12800
H856        H  0.38104276  0.62351077  0.37937756     0.12600
H857        H  0.34785205  0.63624737  0.33972158     0.13100
H858        H  0.42879052  0.67329922  0.26148316     0.15100
C859        C  0.38863340  0.65983455  0.21166178    -0.04900
C860        C  0.40947151  0.68626095  0.18817336    -0.04900
C861        C  0.43176852  0.68292999  0.16521768    -0.23000
C862        C  0.43341234  0.65300081  0.16533695     0.19200
C863        C  0.41226596  0.62619252  0.18887331     0.16400
C864        C  0.38967767  0.62960668  0.21152472    -0.18100
C865        C  0.41389148  0.59631204  0.18919702    -0.19900
C866        C  0.43592273  0.59276474  0.16619779    -0.12500
C867        C  0.45683679  0.61907404  0.14258250     0.04200
C868        C  0.45552324  0.64921336  0.14217256    -0.24600
H869        H  0.40846282  0.70954537  0.18770655     0.09300
H870        H  0.44763588  0.70369044  0.14734720     0.12900
H871        H  0.37307730  0.60897834  0.22922646     0.12800
H872        H  0.39801755  0.57561140  0.20713978     0.12600
H873        H  0.43676954  0.56940464  0.16678542     0.13100
H874        H  0.47152259  0.66943554  0.12378735     0.15100
C875        C  0.16478704  0.54059708  0.36040351    -0.04900
C876        C  0.15855811  0.56141681  0.33768587    -0.04900
C877        C  0.18368204  0.58443555  0.31450994    -0.23000
C878        C  0.21545125  0.58671029  0.31304334     0.19200
C879        C  0.22176805  0.56525808  0.33496530     0.16400
C880        C  0.19673005  0.54300561  0.35908520    -0.18100
C881        C  0.25333566  0.56704456  0.33290822    -0.19900
C882        C  0.27847932  0.59011114  0.30974938    -0.12500
C883        C  0.27284000  0.61231158  0.28884192     0.04200
C884        C  0.24127682  0.61060574  0.29072183    -0.24600
H885        H  0.13431579  0.56039271  0.33856909     0.09300
H886        H  0.17830584  0.60061651  0.29788269     0.12900
H887        H  0.20280027  0.52882012  0.37771942     0.12800
H888        H  0.25861839  0.55064011  0.34926768     0.12600
H889        H  0.30256251  0.59090102  0.30838502     0.13100
H890        H  0.23713931  0.62852994  0.27580143     0.15100
C891        C  0.16428102  0.54801995  0.14386717    -0.04900
C892        C  0.16251108  0.57380669  0.16264862    -0.04900
C893        C  0.18999099  0.59769386  0.18215179    -0.23000
C894        C  0.21958906  0.59580904  0.18413020     0.19200
C895        C  0.22155780  0.56944574  0.16640344     0.16400
C896        C  0.19405684  0.54601130  0.14577701    -0.18100
C897        C  0.25108963  0.56725114  0.16959805    -0.19900
C898        C  0.27804295  0.59064629  0.19053492    -0.12500
C899        C  0.27590813  0.61667290  0.20805638     0.04200
C900        C  0.24711556  0.61972939  0.20392429    -0.24600
H901        H  0.13978644  0.57571784  0.16179021     0.09300
H902        H  0.18799135  0.61753932  0.19588916     0.12900
H903        H  0.19580532  0.52643716  0.13116560     0.12800
H904        H  0.25313835  0.54724407  0.15632817     0.12600
H905        H  0.30040038  0.58828387  0.19339301     0.13100
H906        H  0.24605750  0.64059626  0.21648210     0.15100
C907        C  0.33319154  0.66687149  0.78573327     0.45800
H908        H  0.33015464  0.66612112  0.81486634    -0.03300
C909        C  0.33746866  0.66921224  0.71694667     0.45800
H910        H  0.33909063  0.66985302  0.68749726    -0.03300
C911        C  0.30132509  0.63913562  0.76771772    -0.17000
C912        C  0.33856083  0.70039138  0.76971264    -0.16700
C913        C  0.36266857  0.66221991  0.77147380    -0.17100
C914        C  0.30339561  0.64054275  0.73142549    -0.17100
C915        C  0.34251251  0.70219719  0.73335588    -0.16600
C916        C  0.36440914  0.66357715  0.73467207    -0.17000
O917        O  0.06874440  0.60867485  0.96438682    -0.72700
O918        O  0.10871962  0.57094506  0.53663127    -0.73600
O919        O  0.10772173  0.57263712  0.96010115    -0.62300
O920        O  0.07018962  0.60775308  0.54131376    -0.70700
O921        O  0.02204112  0.56597908  0.52339058    -0.70200
O922        O  0.06767742  0.52388388  0.97960195    -0.61500
O923        O  0.05550565  0.53444474  0.54914678    -0.74000
O924        O  0.03318295  0.55480785  0.95360159    -0.72800
Cu925      Cu  0.09175584  0.59303815  0.00063541     1.04600
Cu926      Cu  0.04326176  0.54341351  0.00141925     1.04300
C927        C  0.04250743  0.58580442  0.94812987     0.93500
C928        C  0.08658806  0.54412876  0.55316114     0.92700
C929        C  0.09207081  0.53996692  0.95878738     0.84800
C930        C  0.03758646  0.59083955  0.54353479     0.91100
O931        O  0.39102169  0.95994238  0.96301178    -0.72700
O932        O  0.43192003  0.54081225  0.53255973    -0.73600
O933        O  0.43103068  0.53616755  0.95539919    -0.62300
O934        O  0.39154695  0.96431883  0.53926063    -0.70700
O935        O  0.43288810  0.95677405  0.52275162    -0.70200
O936        O  0.47890789  0.54200208  0.97300144    -0.61500
O937        O  0.46841461  0.52421430  0.54445206    -0.74000
O938        O  0.44394529  0.97534053  0.95155395    -0.72800
Cu939      Cu  0.40863254  0.00053770  0.99748217     1.04600
Cu940      Cu  0.45726917  0.49954599  0.99804226     1.04300
C941        C  0.41275111  0.95383509  0.94804138     0.93500
C942        C  0.45876605  0.54576407  0.54872122     0.92700
C943        C  0.46363476  0.55134300  0.95257934     0.84800
C944        C  0.40736253  0.94759313  0.54202480     0.91100
O945        O  0.46025353  0.89323176  0.53762904    -0.72700
O946        O  0.04188158  0.93348650  0.96860157    -0.73600
O947        O  0.03649413  0.93222052  0.54542417    -0.62300
O948        O  0.46520635  0.89470638  0.96181969    -0.70700
O949        O  0.45930238  0.93777357  0.97535225    -0.70200
O950        O  0.04138720  0.98027073  0.52935920    -0.61500
O951        O  0.02723161  0.97149974  0.95668360    -0.74000
O952        O  0.47323151  0.94585375  0.54753307    -0.72800
Cu953      Cu  0.50104767  0.91079522  0.50344292     1.04600
Cu954      Cu  0.00035879  0.96011971  0.00218926     1.04300
C955        C  0.45264127  0.91426234  0.55159815     0.93500
C956        C  0.04821348  0.96109143  0.95280319     0.92700
C957        C  0.05139252  0.96480026  0.54872989     0.84800
C958        C  0.44936145  0.91132049  0.95764446     0.91100
C959        C  0.47896771  0.61378028  0.61775993     0.02600
C960        C  0.01511471  0.63370451  0.61765268     0.02500
C961        C  0.03305687  0.62507713  0.59299230    -0.18000
C962        C  0.01647816  0.59774315  0.56922963     0.02600
C963        C  0.47984284  0.57704959  0.57085370     0.02500
C964        C  0.46227729  0.58635057  0.59438871    -0.18000
H965        H  0.43478239  0.57130947  0.59520793     0.04600
H966        H  0.06049887  0.63922470  0.59276381     0.04600
C967        C  0.37472041  0.85682694  0.60667072     0.02600
C968        C  0.35500539  0.87305744  0.60568149     0.02500
C969        C  0.36679001  0.90286754  0.58483676    -0.18000
C970        C  0.39793938  0.91759464  0.56630116     0.02600
C971        C  0.41890902  0.90204523  0.56992516     0.02500
C972        C  0.40617393  0.87175033  0.58931017    -0.18000
H973        H  0.42119473  0.85938148  0.59111666     0.04600
H974        H  0.35122954  0.91458416  0.58273535     0.04600
C975        C  0.48793778  0.61583322  0.87644573     0.02600
C976        C  0.02393135  0.63147647  0.87604602     0.02500
C977        C  0.03996759  0.62066143  0.89991807    -0.18000
C978        C  0.02180940  0.59472464  0.92448123     0.02600
C979        C  0.48519128  0.57886119  0.92600978     0.02500
C980        C  0.46927349  0.58947264  0.90140175    -0.18000
H981        H  0.44184163  0.57667690  0.90154953     0.04600
H982        H  0.06743719  0.63284766  0.89935213     0.04600
C983        C  0.36089900  0.87732043  0.88947059     0.02600
C984        C  0.37677267  0.85733920  0.89387167     0.02500
C985        C  0.40634482  0.87060871  0.91498310    -0.18000
C986        C  0.41938247  0.90132654  0.93340233     0.02600
C987        C  0.40237416  0.92084421  0.92945860     0.02500
C988        C  0.37366758  0.90811404  0.90790151    -0.18000
H989        H  0.36144673  0.92314566  0.90444459     0.04600
H990        H  0.41994605  0.85687083  0.91706720     0.04600
C991        C  0.13870008  0.51965823  0.88768292     0.02600
C992        C  0.12197696  0.98362338  0.88912397     0.02500
C993        C  0.09302374  0.96574937  0.91084848    -0.18000
C994        C  0.08070442  0.98259689  0.93210648     0.02600
C995        C  0.10027275  0.51940128  0.93373670     0.02500
C996        C  0.12817611  0.53682787  0.91082597    -0.18000
H997        H  0.14184455  0.56439356  0.91055108     0.04600
H998        H  0.07961496  0.93818673  0.91080235     0.04600
C999        C  0.13541413  0.52516939  0.62062556     0.02600
C1000       C  0.11871065  0.98903226  0.62137767     0.02500
C1001       C  0.09139691  0.97030114  0.59778779    -0.18000
C1002       C  0.07991782  0.98628807  0.57416091     0.02600
C1003       C  0.09642166  0.52307716  0.57513272     0.02500
C1004       C  0.12410036  0.54120211  0.59728262    -0.18000
H1005       H  0.13695479  0.56877378  0.59673648     0.04600
H1006       H  0.07836265  0.94278757  0.59826035     0.04600
C1007       C  0.17063848  0.83715432  0.71545529     0.46400
H1008       H  0.17465674  0.83910819  0.68639994    -0.03300
C1009       C  0.16442661  0.83477340  0.78390215     0.45800
H1010       H  0.16137809  0.83368417  0.81323045    -0.03300
C1011       C  0.14303353  0.80179036  0.72901573    -0.17000
C1012       C  0.20322588  0.84522859  0.73493297    -0.16700
C1013       C  0.16041240  0.86240089  0.72992667    -0.17100
C1014       C  0.13995811  0.80106778  0.76560576    -0.17100
C1015       C  0.20016535  0.84329383  0.77139610    -0.16600
C1016       C  0.15710584  0.86104458  0.76643680    -0.17000
C1017       C  0.12878512  0.97003865  0.64629299    -0.04900
C1018       C  0.13705765  0.98001445  0.68193343    -0.04900
C1019       C  0.14826606  0.96316298  0.70430100    -0.23000
C1020       C  0.14864766  0.93418306  0.69244141     0.19200
C1021       C  0.13770097  0.92227717  0.65774714     0.16400
C1022       C  0.12925032  0.94093730  0.63454209    -0.18100
C1023       C  0.13447641  0.89138612  0.64708757    -0.19900
C1024       C  0.14100820  0.87194846  0.67093433    -0.12500
C1025       C  0.15340057  0.88402806  0.70519867     0.04200
C1026       C  0.15856254  0.91618595  0.71503375    -0.24600
H1027       H  0.13502463  0.00096828  0.69261687     0.09300
H1028       H  0.15539989  0.97203276  0.73127241     0.12900
H1029       H  0.12264295  0.93248158  0.60738417     0.12800
H1030       H  0.12544543  0.88149965  0.62077977     0.12600
H1031       H  0.13561540  0.84706209  0.66239892     0.13100
H1032       H  0.16951575  0.92704893  0.74043704     0.15100
C1033       C  0.13366529  0.96345590  0.86871468    -0.04900
C1034       C  0.16222401  0.96204775  0.87999038    -0.04900
C1035       C  0.17257415  0.94176159  0.86228505    -0.23000
C1036       C  0.15348061  0.92108965  0.83404098     0.19200
C1037       C  0.12350509  0.92075889  0.82380045     0.16400
C1038       C  0.11395743  0.94218086  0.84098353    -0.18100
C1039       C  0.10347713  0.89878055  0.79676096    -0.19900
C1040       C  0.11362990  0.87822421  0.77925469    -0.12500
C1041       C  0.14442200  0.87994541  0.78776395     0.04200
C1042       C  0.16376177  0.90068907  0.81593953    -0.24600
H1043       H  0.17630029  0.47633938  0.90294888     0.09300
H1044       H  0.19514628  0.94177157  0.87110056     0.12900
H1045       H  0.09102632  0.94201833  0.83321955     0.12800
H1046       H  0.08013335  0.89769349  0.78895708     0.12600
H1047       H  0.09800388  0.86174329  0.75815358     0.13100
H1048       H  0.18721730  0.90162269  0.82304339     0.15100
C1049       C  0.33431518  0.87082062  0.86281427    -0.04900
C1050       C  0.34404680  0.89222049  0.83290386    -0.04900
C1051       C  0.31995151  0.89097071  0.80939313    -0.23000
C1052       C  0.28538412  0.86819680  0.81523410     0.19200
C1053       C  0.27503438  0.84564072  0.84449668     0.16400
C1054       C  0.29962466  0.84712659  0.86840460    -0.18100
C1055       C  0.24024076  0.82272211  0.84959330    -0.19900
C1056       C  0.21626414  0.82215021  0.82586076    -0.12500
C1057       C  0.22631319  0.84478152  0.79678922     0.04200
C1058       C  0.26112405  0.86822985  0.79237711    -0.24600
H1059       H  0.37056254  0.91070101  0.82826924     0.09300
H1060       H  0.32834249  0.90820954  0.78692764     0.12900
H1061       H  0.29187001  0.83079601  0.89159400     0.12800
H1062       H  0.23158292  0.80514872  0.87175589     0.12600
H1063       H  0.18973511  0.80358845  0.83012654     0.13100
H1064       H  0.26963136  0.88730198  0.77208845     0.15100
C1065       C  0.11556186  0.77192204  0.78739382    -0.04900
C1066       C  0.09245283  0.77543494  0.80915106    -0.04900
C1067       C  0.06930604  0.74840527  0.83032801    -0.23000
C1068       C  0.06914836  0.71754631  0.83022403     0.19200
C1069       C  0.09233681  0.71381481  0.80819019     0.16400
C1070       C  0.11559830  0.74115183  0.78707595    -0.18100
C1071       C  0.09206605  0.68291760  0.80793892    -0.19900
C1072       C  0.06935774  0.65610720  0.82962253    -0.12500
C1073       C  0.04649016  0.65968731  0.85185428     0.04200
C1074       C  0.04654539  0.69053475  0.85211577    -0.24600
H1075       H  0.09223888  0.79913225  0.80952443     0.09300
H1076       H  0.05166320  0.75168774  0.84689820     0.12900
H1077       H  0.13365335  0.73861345  0.77039184     0.12800
H1078       H  0.10955248  0.67956596  0.79118032     0.12600
H1079       H  0.06966166  0.63245656  0.82921943     0.13100
H1080       H  0.02919474  0.69348377  0.86954278     0.15100
C1081       C  0.23437904  0.85514972  0.71407772    -0.04900
C1082       C  0.25712621  0.88972859  0.70764435    -0.04900
C1083       C  0.28582687  0.89988448  0.68640328    -0.23000
C1084       C  0.29093874  0.87552801  0.66919773     0.19200
C1085       C  0.26664483  0.84065553  0.67317494     0.16400
C1086       C  0.23872749  0.83058433  0.69615429    -0.18100
C1087       C  0.27018916  0.81670252  0.65315998    -0.19900
C1088       C  0.29778724  0.82719190  0.62996409    -0.12500
C1089       C  0.32372819  0.86148522  0.62803973     0.04200
C1090       C  0.31961193  0.88556682  0.64753638    -0.24600
H1091       H  0.25290581  0.90890195  0.71974498     0.09300
H1092       H  0.30361214  0.92676467  0.68281077     0.12900
H1093       H  0.21999693  0.80389523  0.69942535     0.12800
H1094       H  0.25115331  0.78998433  0.65469469     0.12600
H1095       H  0.29813170  0.80838065  0.61300142     0.13100
H1096       H  0.33879235  0.91224682  0.64587601     0.15100
C1097       C  0.12225363  0.77285385  0.70386669    -0.04900
C1098       C  0.13602087  0.77137225  0.67072414    -0.04900
C1099       C  0.11710724  0.74535800  0.64652067    -0.23000
C1100       C  0.08471214  0.71872613  0.65569647     0.19200
C1101       C  0.07116926  0.71885099  0.68933526     0.16400
C1102       C  0.08886190  0.74681509  0.71201674    -0.18100
C1103       C  0.04069738  0.69042489  0.70029036    -0.19900
C1104       C  0.02385739  0.66224694  0.67807529    -0.12500
C1105       C  0.03487143  0.66299207  0.64282712     0.04200
C1106       C  0.06588672  0.69171691  0.63212138    -0.24600
H1107       H  0.16169501  0.79005450  0.66328669     0.09300
H1108       H  0.12837208  0.74543455  0.62110393     0.12900
H1109       H  0.07624763  0.74779061  0.73590044     0.12800
H1110       H  0.03066050  0.68932925  0.72670646     0.12600
H1111       H  0.00230279  0.63981407  0.68902213     0.13100
H1112       H  0.07566290  0.69319578  0.60553197     0.15100
C1113       C  0.36453115  0.82471070  0.62610534    -0.04900
C1114       C  0.34421579  0.79328354  0.60947538    -0.04900
C1115       C  0.33547740  0.76285053  0.62706988    -0.23000
C1116       C  0.34896940  0.76341643  0.66055591     0.19200
C1117       C  0.37203146  0.79505150  0.67597298     0.16400
C1118       C  0.37914601  0.82547523  0.65898754    -0.18100
C1119       C  0.38787608  0.79567573  0.70788530    -0.19900
C1120       C  0.37984075  0.76535127  0.72513424    -0.12500
C1121       C  0.35437706  0.73388566  0.71195006     0.04200
C1122       C  0.33989709  0.73301857  0.67888764    -0.24600
H1123       H  0.33451762  0.79237912  0.58308497     0.09300
H1124       H  0.31858290  0.73891267  0.61427902     0.12900
H1125       H  0.39651264  0.84976541  0.67091271     0.12800
H1126       H  0.40640825  0.81960727  0.71957242     0.12600
H1127       H  0.39259099  0.76656538  0.74970506     0.13100
H1128       H  0.32093362  0.70887893  0.66793537     0.15100
C1129       C  0.33683614  0.72682156  0.79155800    -0.04900
C1130       C  0.32231110  0.74532172  0.77764631    -0.04900
C1131       C  0.32669560  0.77442366  0.79464832    -0.23000
C1132       C  0.34293490  0.78375794  0.82747467     0.19200
C1133       C  0.35255941  0.76218272  0.84431783     0.16400
C1134       C  0.35039961  0.73437599  0.82589457    -0.18100
C1135       C  0.36504519  0.76943249  0.87885618    -0.19900
C1136       C  0.36965822  0.79872714  0.89569410    -0.12500
C1137       C  0.36453405  0.82299128  0.87747647     0.04200
C1138       C  0.35046474  0.81465044  0.84326443    -0.24600
H1139       H  0.30923044  0.73844441  0.75251643     0.09300
H1140       H  0.31761583  0.78974540  0.78199337     0.12900
H1141       H  0.36061587  0.71971417  0.83773075     0.12800
H1142       H  0.37137439  0.75253190  0.89285094     0.12600
H1143       H  0.37857239  0.80292503  0.92277026     0.13100
H1144       H  0.34686171  0.83245204  0.82766563     0.15100
C1145       C  0.46908203  0.62661357  0.85198915    -0.04900
C1146       C  0.47923007  0.63608226  0.81636369    -0.04900
C1147       C  0.46303373  0.64876031  0.79501044    -0.23000
C1148       C  0.43423211  0.64912891  0.80759018     0.19200
C1149       C  0.42190273  0.63669596  0.84196026     0.16400
C1150       C  0.44010177  0.62706322  0.86435949    -0.18100
C1151       C  0.39123074  0.63355256  0.85320638    -0.19900
C1152       C  0.37232386  0.64151077  0.83023113    -0.12500
C1153       C  0.38451918  0.65504218  0.79601258     0.04200
C1154       C  0.41683508  0.66050874  0.78600848    -0.24600
H1155       H  0.99977200  0.63387154  0.80482543     0.09300
H1156       H  0.47220425  0.65695099  0.76813198     0.12900
H1157       H  0.43141666  0.61974509  0.89149746     0.12800
H1158       H  0.38104307  0.62351089  0.87937760     0.12600
H1159       H  0.34785225  0.63624740  0.83972170     0.13100
H1160       H  0.42879080  0.67329951  0.76148341     0.15100
C1161       C  0.38863368  0.65983478  0.71166194    -0.04900
C1162       C  0.40947176  0.68626116  0.68817350    -0.04900
C1163       C  0.43176878  0.68293024  0.66521780    -0.23000
C1164       C  0.43341261  0.65300105  0.66533711     0.19200
C1165       C  0.41226632  0.62619280  0.68887351     0.16400
C1166       C  0.38967801  0.62960693  0.71152494    -0.18100
C1167       C  0.41389186  0.59631232  0.68919728    -0.19900
C1168       C  0.43592304  0.59276500  0.66619797    -0.12500
C1169       C  0.45683699  0.61907423  0.64258259     0.04200
C1170       C  0.45552346  0.64921358  0.64217264    -0.24600
H1171       H  0.40846303  0.70954559  0.68770667     0.09300
H1172       H  0.44763607  0.70369061  0.64734733     0.12900
H1173       H  0.37307771  0.60897864  0.72922667     0.12800
H1174       H  0.39801802  0.57561177  0.70714007     0.12600
H1175       H  0.43676986  0.56940489  0.66678562     0.13100
H1176       H  0.47152273  0.66943569  0.62378740     0.15100
C1177       C  0.16478740  0.54059714  0.86040389    -0.04900
C1178       C  0.15855835  0.56141670  0.83768613    -0.04900
C1179       C  0.18368222  0.58443542  0.81451012    -0.23000
C1180       C  0.21545148  0.58671027  0.81304356     0.19200
C1181       C  0.22176840  0.56525822  0.83496562     0.16400
C1182       C  0.19673049  0.54300581  0.85908565    -0.18100
C1183       C  0.25333605  0.56704477  0.83290852    -0.19900
C1184       C  0.27847961  0.59011126  0.80974953    -0.12500
C1185       C  0.27284020  0.61231159  0.78884199     0.04200
C1186       C  0.24127698  0.61060570  0.79072194    -0.24600
H1187       H  0.13431597  0.56039249  0.83856930     0.09300
H1188       H  0.17830593  0.60061624  0.79788281     0.12900
H1189       H  0.20280080  0.52882052  0.87771994     0.12800
H1190       H  0.25861886  0.55064046  0.84926804     0.12600
H1191       H  0.30256283  0.59090119  0.80838516     0.13100
H1192       H  0.23713941  0.62852980  0.77580158     0.15100
C1193       C  0.16428118  0.54802019  0.64386715    -0.04900
C1194       C  0.16251111  0.57380672  0.66264888    -0.04900
C1195       C  0.18999101  0.59769386  0.68215211    -0.23000
C1196       C  0.21958921  0.59580924  0.68413024     0.19200
C1197       C  0.22155811  0.56944622  0.66640307     0.16400
C1198       C  0.19405715  0.54601178  0.64577664    -0.18100
C1199       C  0.25109011  0.56725186  0.66959730    -0.19900
C1200       C  0.27804337  0.59064689  0.69053431    -0.12500
C1201       C  0.27590834  0.61667313  0.70805631     0.04200
C1202       C  0.24711567  0.61972950  0.70392447    -0.24600
H1203       H  0.13978638  0.57571769  0.66179068     0.09300
H1204       H  0.18799124  0.61753912  0.69588976     0.12900
H1205       H  0.19580572  0.52643782  0.63116498     0.12800
H1206       H  0.25313899  0.54724505  0.65632704     0.12600
H1207       H  0.30040093  0.58828463  0.69339211     0.13100
H1208       H  0.24605749  0.64059618  0.71648253     0.15100
C1209       C  0.83318421  0.16686672  0.28573284     0.45800
H1210       H  0.83014280  0.16611268  0.31486563    -0.03300
C1211       C  0.83747296  0.16921372  0.21694679     0.45800
H1212       H  0.83910004  0.16985739  0.18749762    -0.03300
C1213       C  0.80132212  0.13913186  0.26771093    -0.17000
C1214       C  0.83855443  0.20038727  0.26971383    -0.16700
C1215       C  0.86266412  0.16221829  0.27147854    -0.17100
C1216       C  0.80339823  0.14054192  0.23141900    -0.17100
C1217       C  0.84251213  0.20219650  0.23335769    -0.16600
C1218       C  0.86441095  0.16357814  0.23467738    -0.17000
O1219       O  0.56874466  0.10868235  0.46439751    -0.72700
O1220       O  0.60871989  0.07094770  0.03663495    -0.73600
O1221       O  0.60772256  0.07264481  0.46010508    -0.62300
O1222       O  0.57018779  0.10775259  0.04132350    -0.70700
O1223       O  0.52203960  0.06598028  0.02339690    -0.70200
O1224       O  0.56767843  0.02389062  0.47960378    -0.61500
O1225       O  0.55550589  0.03444693  0.04914959    -0.74000
O1226       O  0.53318340  0.05481642  0.45360697    -0.72800
Cu1227     Cu  0.59175570  0.09304264  0.50064231     1.04600
Cu1228     Cu  0.54326178  0.04341810  0.50142301     1.04300
C1229       C  0.54250744  0.08581358  0.44813970     0.93500
C1230       C  0.58658827  0.04413056  0.05316340     0.92700
C1231       C  0.59207202  0.03997461  0.45878978     0.84800
C1232       C  0.53758452  0.09083836  0.04354387     0.91100
O1233       O  0.89102248  0.45993663  0.46301251    -0.72700
O1234       O  0.93191888  0.04081115  0.03256927    -0.73600
O1235       O  0.93103031  0.03617465  0.45540818    -0.62300
O1236       O  0.89154999  0.46431930  0.03926047    -0.70700
O1237       O  0.93289191  0.45677474  0.02275414    -0.70200
O1238       O  0.97890718  0.04200620  0.47300773    -0.61500
O1239       O  0.96841306  0.02421125  0.04445645    -0.74000
O1240       O  0.94394583  0.47533320  0.45155502    -0.72800
Cu1241     Cu  0.90863377  0.50053468  0.49747779     1.04600
Cu1242     Cu  0.95726748  0.99954780  0.49804401     1.04300
C1243       C  0.91275133  0.45382791  0.44804340     0.93500
C1244       C  0.95876432  0.04576036  0.04873020     0.92700
C1245       C  0.96363437  0.05135018  0.45258878     0.84800
C1246       C  0.90736626  0.44759430  0.04202700     0.91100
O1247       O  0.96025461  0.39322963  0.03763295    -0.72700
O1248       O  0.54188072  0.43347918  0.46860368    -0.73600
O1249       O  0.53649472  0.43221830  0.04542677    -0.62300
O1250       O  0.96520421  0.39469736  0.46182343    -0.70700
O1251       O  0.95930070  0.43776508  0.47535437    -0.70200
O1252       O  0.54138860  0.48026795  0.02935802    -0.61500
O1253       O  0.52723025  0.47149160  0.45668295    -0.74000
O1254       O  0.97323459  0.44585268  0.04753380    -0.72800
Cu1255     Cu  0.00104744  0.41079002  0.00344619     1.04600
Cu1256     Cu  0.50035910  0.46011441  0.50218924     1.04300
C1257       C  0.95264394  0.41426181  0.05160086     0.93500
C1258       C  0.54821230  0.46108338  0.45280381     0.92700
C1259       C  0.55139335  0.46479828  0.04873071     0.84800
C1260       C  0.94935871  0.41131089  0.45764801     0.91100
C1261       C  0.97896573  0.11376857  0.11777855     0.02600
C1262       C  0.51511240  0.13369601  0.11766733     0.02500
C1263       C  0.53305438  0.12507053  0.09300525    -0.18000
C1264       C  0.51647579  0.09773801  0.06924149     0.02600
C1265       C  0.97984067  0.07704256  0.07086709     0.02500
C1266       C  0.96227509  0.08633887  0.09440742    -0.18000
H1267       H  0.93478040  0.07129597  0.09522880     0.04600
H1268       H  0.56049638  0.13921957  0.09277506     0.04600
C1269       C  0.87472674  0.35683077  0.10667753     0.02600
C1270       C  0.85501187  0.37306112  0.10568797     0.02500
C1271       C  0.86679566  0.40287088  0.08484288    -0.18000
C1272       C  0.89794394  0.41759695  0.06630539     0.02600
C1273       C  0.91891327  0.40204700  0.06992940     0.02500
C1274       C  0.90617937  0.37175334  0.08931614    -0.18000
H1275       H  0.92120017  0.35938435  0.09112270     0.04600
H1276       H  0.85123509  0.41458762  0.08274236     0.04600
C1277       C  0.98793715  0.11584913  0.37646455     0.02600
C1278       C  0.52393099  0.13149407  0.37606627     0.02500
C1279       C  0.53996728  0.12067788  0.39993680    -0.18000
C1280       C  0.52180908  0.09473677  0.42449532     0.02600
C1281       C  0.98519100  0.07887221  0.42602319     0.02500
C1282       C  0.96927309  0.08948601  0.40141803    -0.18000
H1283       H  0.94184115  0.07668866  0.40156487     0.04600
H1284       H  0.56743696  0.13286496  0.39937145     0.04600
C1285       C  0.86089321  0.37731244  0.38947678     0.02600
C1286       C  0.87676344  0.35732821  0.39387937     0.02500
C1287       C  0.90633586  0.37059568  0.41499104    -0.18000
C1288       C  0.91937805  0.40131589  0.43340734     0.02600
C1289       C  0.90237239  0.42083593  0.42946231     0.02500
C1290       C  0.87366512  0.40810690  0.40790653    -0.18000
H1291       H  0.86144641  0.42314050  0.40444929     0.04600
H1292       H  0.91993391  0.35685477  0.41707700     0.04600
C1293       C  0.63870282  0.01966744  0.38768502     0.02600
C1294       C  0.62197470  0.48361431  0.38912386     0.02500
C1295       C  0.59302248  0.46574051  0.41084966    -0.18000
C1296       C  0.58070300  0.48258830  0.43210664     0.02600
C1297       C  0.60027444  0.01940962  0.43373836     0.02500
C1298       C  0.62817908  0.03683660  0.41082940    -0.18000
H1299       H  0.64184844  0.06440215  0.41055673     0.04600
H1300       H  0.57961446  0.43817775  0.41080514     0.04600
C1301       C  0.63541681  0.02516820  0.12062091     0.02600
C1302       C  0.61870900  0.48903311  0.12138186     0.02500
C1303       C  0.59139661  0.47030116  0.09779083    -0.18000
C1304       C  0.57991788  0.48628714  0.07416227     0.02600
C1305       C  0.59642210  0.02307788  0.07513251     0.02500
C1306       C  0.62410227  0.04120193  0.09728064    -0.18000
H1307       H  0.63695705  0.06877365  0.09673593     0.04600
H1308       H  0.57836374  0.44278759  0.09826346     0.04600
C1309       C  0.67064200  0.33715438  0.21545267     0.46400
H1310       H  0.67466228  0.33910808  0.18639780    -0.03300
C1311       C  0.66442745  0.33477211  0.28389938     0.45800
H1312       H  0.66137846  0.33368219  0.31322771    -0.03300
C1313       C  0.64303415  0.30179109  0.22901231    -0.17000
C1314       C  0.70322777  0.34522593  0.23493233    -0.16700
C1315       C  0.66041775  0.36240277  0.22992345    -0.17100
C1316       C  0.63995766  0.30106833  0.26560220    -0.17100
C1317       C  0.70016533  0.34329021  0.27139491    -0.16600
C1318       C  0.65710940  0.36104471  0.26643359    -0.17000
C1319       C  0.62878428  0.47004000  0.14629653    -0.04900
C1320       C  0.63704996  0.48001105  0.18193887    -0.04900
C1321       C  0.64825883  0.46315967  0.20430627    -0.23000
C1322       C  0.64864868  0.43418475  0.19244304     0.19200
C1323       C  0.63771056  0.42228444  0.15774557     0.16400
C1324       C  0.62925843  0.44094433  0.13454181    -0.18100
C1325       C  0.63449518  0.39139847  0.14708116    -0.19900
C1326       C  0.64102571  0.37195914  0.17092693    -0.12500
C1327       C  0.65340868  0.38403257  0.20519548     0.04200
C1328       C  0.65856344  0.41618705  0.21503501    -0.24600
H1329       H  0.63501205  0.50096196  0.19262348     0.09300
H1330       H  0.65538668  0.47202526  0.23127939     0.12900
H1331       H  0.62265666  0.43249294  0.10738221     0.12800
H1332       H  0.62547143  0.38151664  0.12077069     0.12600
H1333       H  0.63563806  0.34707566  0.16238687     0.13100
H1334       H  0.66951078  0.42704695  0.24044057     0.15100
C1335       C  0.63366299  0.46344709  0.36871508    -0.04900
C1336       C  0.66222495  0.46204358  0.37998745    -0.04900
C1337       C  0.67257567  0.44175821  0.36228177    -0.23000
C1338       C  0.65348038  0.42108403  0.33403983     0.19200
C1339       C  0.62350188  0.42074877  0.32380277     0.16400
C1340       C  0.61395268  0.44216875  0.34098713    -0.18100
C1341       C  0.60347318  0.39876911  0.29676437    -0.19900
C1342       C  0.61362899  0.37821672  0.27925500    -0.12500
C1343       C  0.64442363  0.37994258  0.28776132     0.04200
C1344       C  0.66376363  0.40068646  0.31593638    -0.24600
H1345       H  0.67629605  0.97634000  0.40295428     0.09300
H1346       H  0.69514993  0.44177132  0.37109450     0.12900
H1347       H  0.59101953  0.44200304  0.33322596     0.12800
H1348       H  0.58012738  0.39767872  0.28896335     0.12600
H1349       H  0.59800307  0.36173510  0.25815412     0.13100
H1350       H  0.68722090  0.40162303  0.32303772     0.15100
C1351       C  0.83431019  0.37081548  0.36281989    -0.04900
C1352       C  0.84404150  0.39222516  0.33291744    -0.04900
C1353       C  0.81994691  0.39097832  0.30940760    -0.23000
C1354       C  0.78538020  0.36819602  0.31524115     0.19200
C1355       C  0.77503068  0.34562941  0.34449428     0.16400
C1356       C  0.79962032  0.34711298  0.36840194    -0.18100
C1357       C  0.74023747  0.32270247  0.34958258    -0.19900
C1358       C  0.71626163  0.32213353  0.32585061    -0.12500
C1359       C  0.72631094  0.34477486  0.29678850     0.04200
C1360       C  0.76112085  0.36823184  0.29238443    -0.24600
H1361       H  0.87055658  0.41071180  0.32828858     0.09300
H1362       H  0.82833754  0.40822486  0.28694959     0.12900
H1363       H  0.79186570  0.33077426  0.39158427     0.12800
H1364       H  0.73157992  0.30512141  0.37173737     0.12600
H1365       H  0.68973292  0.30356646  0.33010937     0.13100
H1366       H  0.76962598  0.38730939  0.27210558     0.15100
C1367       C  0.61555818  0.27192503  0.28739036    -0.04900
C1368       C  0.59244921  0.27544171  0.30914390    -0.04900
C1369       C  0.56930296  0.24841591  0.33032532    -0.23000
C1370       C  0.56914601  0.21755728  0.33022954     0.19200
C1371       C  0.59233327  0.21382169  0.30819784     0.16400
C1372       C  0.61559387  0.24115461  0.28707882    -0.18100
C1373       C  0.59206301  0.18292481  0.30795382    -0.19900
C1374       C  0.56935619  0.15611862  0.32964234    -0.12500
C1375       C  0.54649009  0.15970269  0.35187251     0.04200
C1376       C  0.54654507  0.19055012  0.35212724    -0.24600
H1377       H  0.59223582  0.29913937  0.30951192     0.09300
H1378       H  0.55166073  0.25170140  0.34689315     0.12900
H1379       H  0.63364862  0.23861341  0.27039722     0.12800
H1380       H  0.60954840  0.17957012  0.29119689     0.12600
H1381       H  0.56965986  0.13246774  0.32924385     0.13100
H1382       H  0.52919519  0.19350208  0.36955245     0.15100
C1383       C  0.73438263  0.35514763  0.21408061    -0.04900
C1384       C  0.75713290  0.38972683  0.20765362    -0.04900
C1385       C  0.78583575  0.39988370  0.18641615    -0.23000
C1386       C  0.79094654  0.37552814  0.16920714     0.19200
C1387       C  0.76665018  0.34065568  0.17317840     0.16400
C1388       C  0.73873069  0.33058322  0.19615476    -0.18100
C1389       C  0.77019375  0.31670398  0.15315998    -0.19900
C1390       C  0.79779283  0.32719508  0.12996551    -0.12500
C1391       C  0.82373503  0.36148785  0.12804592     0.04200
C1392       C  0.81962058  0.38556807  0.14754709    -0.24600
H1393       H  0.75291272  0.40889986  0.21975602     0.09300
H1394       H  0.80362309  0.42676389  0.18282828     0.12900
H1395       H  0.71999813  0.30389424  0.19942112     0.12800
H1396       H  0.75115648  0.28998631  0.15469069     0.12600
H1397       H  0.79813729  0.30838509  0.11299950     0.13100
H1398       H  0.83880249  0.41224772  0.14589029     0.15100
C1399       C  0.62225206  0.27285545  0.20386358    -0.04900
C1400       C  0.63601756  0.27137167  0.17072071    -0.04900
C1401       C  0.61710235  0.24535560  0.14651962    -0.23000
C1402       C  0.58470812  0.21872413  0.15569871     0.19200
C1403       C  0.57116691  0.21885206  0.18933749     0.16400
C1404       C  0.58886022  0.24681841  0.21201545    -0.18100
C1405       C  0.54069686  0.19042623  0.20029683    -0.19900
C1406       C  0.52385757  0.16224482  0.17808635    -0.12500
C1407       C  0.53486927  0.16298668  0.14283785     0.04200
C1408       C  0.56588213  0.19171196  0.13212742    -0.24600
H1409       H  0.66169140  0.29005299  0.16328162     0.09300
H1410       H  0.62836585  0.24542989  0.12110260     0.12900
H1411       H  0.57624651  0.24779625  0.23589860     0.12800
H1412       H  0.53066154  0.18933323  0.22671330     0.12600
H1413       H  0.50230525  0.13981221  0.18903674     0.13100
H1414       H  0.57565640  0.19318882  0.10553736     0.15100
C1415       C  0.86453685  0.32471427  0.12611165    -0.04900
C1416       C  0.84422286  0.29328782  0.10948002    -0.04900
C1417       C  0.83548388  0.26285426  0.12707342    -0.23000
C1418       C  0.84897355  0.26341906  0.16056044     0.19200
C1419       C  0.87203362  0.29505352  0.17598002     0.16400
C1420       C  0.87914912  0.32547786  0.15899526    -0.18100
C1421       C  0.88787530  0.29567653  0.20789410    -0.19900
C1422       C  0.87983917  0.26535129  0.22514187    -0.12500
C1423       C  0.85437780  0.23388619  0.21195429     0.04200
C1424       C  0.83990066  0.23302046  0.17889062    -0.24600
H1425       H  0.83452651  0.29238433  0.08308890     0.09300
H1426       H  0.81859081  0.23891695  0.11428100     0.12900
H1427       H  0.89651434  0.34976757  0.17092199     0.12800
H1428       H  0.90640567  0.31960756  0.21958341     0.12600
H1429       H  0.89258686  0.26656425  0.24971419     0.13100
H1430       H  0.82093891  0.20888123  0.16793617     0.15100
C1431       C  0.83682629  0.22681503  0.29156012    -0.04900
C1432       C  0.82230391  0.24531721  0.27764749    -0.04900
C1433       C  0.82668725  0.27441808  0.29465123    -0.23000
C1434       C  0.84292299  0.28374905  0.32747981     0.19200
C1435       C  0.85254342  0.26217108  0.34432360     0.16400
C1436       C  0.85038458  0.23436536  0.32589913    -0.18100
C1437       C  0.86502579  0.26941775  0.37886352    -0.19900
C1438       C  0.86964084  0.29871302  0.39570191    -0.12500
C1439       C  0.86452157  0.32297993  0.37748388     0.04200
C1440       C  0.85045448  0.31464184  0.34327045    -0.24600
H1441       H  0.80922674  0.23844276  0.25251545     0.09300
H1442       H  0.81761041  0.28974173  0.28199584     0.12900
H1443       H  0.86059851  0.21970206  0.33773596     0.12800
H1444       H  0.87135160  0.25251509  0.39285842     0.12600
H1445       H  0.87855345  0.30290944  0.42277873     0.13100
H1446       H  0.84685562  0.33244561  0.32767166     0.15100
C1447       C  0.96908059  0.12662805  0.35200741    -0.04900
C1448       C  0.97923192  0.13610103  0.31638337    -0.04900
C1449       C  0.96303609  0.14877917  0.29503020    -0.23000
C1450       C  0.93422996  0.14914036  0.30760639     0.19200
C1451       C  0.92189528  0.13670001  0.34197333     0.16400
C1452       C  0.94009539  0.12707017  0.36437440    -0.18100
C1453       C  0.89121690  0.13354555  0.35321317    -0.19900
C1454       C  0.87230975  0.14150063  0.33023474    -0.12500
C1455       C  0.88451204  0.15504131  0.29602070     0.04200
C1456       C  0.91683284  0.16051844  0.28602348    -0.24600
H1457       H  0.49977581  0.13389344  0.30484609     0.09300
H1458       H  0.97221007  0.15697456  0.26815320     0.12900
H1459       H  0.93140656  0.11974751  0.39151096     0.12800
H1460       H  0.88102442  0.12349690  0.37938153     0.12600
H1461       H  0.84783294  0.13622798  0.33971812     0.13100
H1462       H  0.92879174  0.17331513  0.26150105     0.15100
C1463       C  0.88863769  0.15983423  0.21167276    -0.04900
C1464       C  0.90947712  0.18625865  0.18818320    -0.04900
C1465       C  0.93177413  0.18292510  0.16523030    -0.23000
C1466       C  0.93341617  0.15299503  0.16535319     0.19200
C1467       C  0.91227030  0.12618944  0.18889242     0.16400
C1468       C  0.88968269  0.12960662  0.21154191    -0.18100
C1469       C  0.91389458  0.09630819  0.18921938    -0.19900
C1470       C  0.93592330  0.09275720  0.16621954    -0.12500
C1471       C  0.95683610  0.11906385  0.14260105     0.04200
C1472       C  0.95552425  0.14920389  0.14218861    -0.24600
H1473       H  0.90846878  0.20954327  0.18771269     0.09300
H1474       H  0.94764197  0.20368369  0.14735811     0.12900
H1475       H  0.87308187  0.10898006  0.22924526     0.12800
H1476       H  0.89802114  0.07560962  0.20716456     0.12600
H1477       H  0.93676921  0.06939666  0.16680920     0.13100
H1478       H  0.97152298  0.16942403  0.12380106     0.15100
C1479       C  0.66479006  0.04060737  0.36040640    -0.04900
C1480       C  0.65856530  0.06143543  0.33769715    -0.04900
C1481       C  0.68368875  0.08445281  0.31452021    -0.23000
C1482       C  0.71545287  0.08671695  0.31304340     0.19200
C1483       C  0.72176526  0.06525623  0.33495627     0.16400
C1484       C  0.69672858  0.04300598  0.35907853    -0.18100
C1485       C  0.75332759  0.06703195  0.33288845    -0.19900
C1486       C  0.77847065  0.09009707  0.30972814    -0.12500
C1487       C  0.77283572  0.11230597  0.28883042     0.04200
C1488       C  0.74127805  0.11061073  0.29072088    -0.24600
H1489       H  0.63432649  0.06041865  0.33858732     0.09300
H1490       H  0.67831619  0.10064030  0.29790002     0.12900
H1491       H  0.70279670  0.02881500  0.37770629     0.12800
H1492       H  0.75860684  0.05062119  0.34924093     0.12600
H1493       H  0.80255084  0.09088087  0.30835688     0.13100
H1494       H  0.73714527  0.12854214  0.27580882     0.15100
C1495       C  0.66428436  0.04801830  0.14386149    -0.04900
C1496       C  0.66250983  0.07379778  0.16265241    -0.04900
C1497       C  0.68998877  0.09768380  0.18215729    -0.23000
C1498       C  0.71959097  0.09580576  0.18412635     0.19200
C1499       C  0.72156526  0.06945064  0.16638802     0.16400
C1500       C  0.69406408  0.04601606  0.14576179    -0.18100
C1501       C  0.75110260  0.06726437  0.16957151    -0.19900
C1502       C  0.77805518  0.09065845  0.19051013    -0.12500
C1503       C  0.77591359  0.11667537  0.20804513     0.04200
C1504       C  0.74711609  0.11972475  0.20392265    -0.24600
H1505       H  0.63978207  0.07570368  0.16180050     0.09300
H1506       H  0.68798522  0.11752326  0.19590323     0.12900
H1507       H  0.69581519  0.02644683  0.13114315     0.12800
H1508       H  0.75315615  0.04726420  0.15629182     0.12600
H1509       H  0.80041673  0.08830199  0.19335996     0.13100
H1510       H  0.74605337  0.14058563  0.21648914     0.15100
C1511       C  0.83318425  0.16686678  0.78573281     0.45800
H1512       H  0.83014274  0.16611277  0.81486557    -0.03300
C1513       C  0.83747308  0.16921377  0.71694678     0.45800
H1514       H  0.83910020  0.16985743  0.68749761    -0.03300
C1515       C  0.80132224  0.13913182  0.76771088    -0.17000
C1516       C  0.83855434  0.20038727  0.76971377    -0.16700
C1517       C  0.86266430  0.16221853  0.77147862    -0.17100
C1518       C  0.80339837  0.14054188  0.73141895    -0.17100
C1519       C  0.84251209  0.20219650  0.73335763    -0.16600
C1520       C  0.86441116  0.16357836  0.73467745    -0.17000
O1521       O  0.56874506  0.10868257  0.96439764    -0.72700
O1522       O  0.60871969  0.07094765  0.53663474    -0.73600
O1523       O  0.60772291  0.07264491  0.96010528    -0.62300
O1524       O  0.57018756  0.10775249  0.54132332    -0.70700
O1525       O  0.52203934  0.06598012  0.52339688    -0.70200
O1526       O  0.56767869  0.02389073  0.97960387    -0.61500
O1527       O  0.55550572  0.03444687  0.54914951    -0.74000
O1528       O  0.53318380  0.05481667  0.95360700    -0.72800
Cu1529     Cu  0.59175600  0.09304276  0.00064250     1.04600
Cu1530     Cu  0.54326205  0.04341826  0.00142306     1.04300
C1531       C  0.54250785  0.08581383  0.94813978     0.93500
C1532       C  0.58658812  0.04413054  0.55316327     0.92700
C1533       C  0.59207234  0.03997471  0.95878994     0.84800
C1534       C  0.53758431  0.09083825  0.54354378     0.91100
O1535       O  0.89102237  0.45993669  0.96301247    -0.72700
O1536       O  0.93191889  0.04081114  0.53256902    -0.73600
O1537       O  0.93103029  0.03617480  0.95540842    -0.62300
O1538       O  0.89155014  0.46431932  0.53926046    -0.70700
O1539       O  0.93289217  0.45677487  0.52275427    -0.70200
O1540       O  0.97890714  0.04200631  0.97300796    -0.61500
O1541       O  0.96841316  0.02421137  0.54445627    -0.74000
O1542       O  0.94394572  0.47533329  0.95155494    -0.72800
Cu1543     Cu  0.90863368  0.50053471  0.99747784     1.04600
Cu1544     Cu  0.95726739  0.99954782  0.99804410     1.04300
C1545       C  0.91275124  0.45382799  0.94804332     0.93500
C1546       C  0.95876438  0.04576045  0.54872994     0.92700
C1547       C  0.96363436  0.05135035  0.95258906     0.84800
C1548       C  0.90736645  0.44759436  0.54202705     0.91100
O1549       O  0.96025473  0.39322956  0.53763298    -0.72700
O1550       O  0.54188073  0.43347924  0.96860375    -0.73600
O1551       O  0.53649482  0.43221830  0.54542671    -0.62300
O1552       O  0.96520414  0.39469745  0.96182340    -0.70700
O1553       O  0.95930074  0.43776525  0.97535422    -0.70200
O1554       O  0.54138859  0.48026791  0.52935797    -0.61500
O1555       O  0.52723040  0.47149173  0.95668298    -0.74000
O1556       O  0.97323470  0.44585259  0.54753391    -0.72800
Cu1557     Cu  0.00104755  0.41079000  0.50344621     1.04600
Cu1558     Cu  0.50035916  0.46011454  0.00218922     1.04300
C1559       C  0.95264404  0.41426173  0.55160090     0.93500
C1560       C  0.54821241  0.46108347  0.95280388     0.92700
C1561       C  0.55139340  0.46479828  0.54873065     0.84800
C1562       C  0.94935870  0.41131103  0.95764792     0.91100
C1563       C  0.97896572  0.11376893  0.61777793     0.02600
C1564       C  0.51511249  0.13369605  0.61766728     0.02500
C1565       C  0.53305435  0.12507051  0.59300512    -0.18000
C1566       C  0.51647565  0.09773795  0.56924142     0.02600
C1567       C  0.97984071  0.07704275  0.57086670     0.02500
C1568       C  0.96227511  0.08633917  0.59440687    -0.18000
H1569       H  0.93478040  0.07129626  0.59522824     0.04600
H1570       H  0.56049637  0.13921953  0.59277483     0.04600
C1571       C  0.87472671  0.35683066  0.60667733     0.02600
C1572       C  0.85501195  0.37306111  0.60568785     0.02500
C1573       C  0.86679579  0.40287093  0.58484283    -0.18000
C1574       C  0.89794409  0.41759696  0.56630537     0.02600
C1575       C  0.91891333  0.40204693  0.56992934     0.02500
C1576       C  0.90617935  0.37175318  0.58931596    -0.18000
H1577       H  0.92120005  0.35938415  0.59112247     0.04600
H1578       H  0.85123531  0.41458770  0.58274236     0.04600
C1579       C  0.98793724  0.11584946  0.87646498     0.02600
C1580       C  0.52393143  0.13149436  0.87606632     0.02500
C1581       C  0.53996771  0.12067818  0.89993687    -0.18000
C1582       C  0.52180950  0.09473705  0.92449538     0.02600
C1583       C  0.98519101  0.07887245  0.92602354     0.02500
C1584       C  0.96927316  0.08948641  0.90141850    -0.18000
H1585       H  0.94184119  0.07668921  0.90156542     0.04600
H1586       H  0.56743740  0.13286526  0.89937154     0.04600
C1587       C  0.86089326  0.37731251  0.88947662     0.02600
C1588       C  0.87676354  0.35732832  0.89387923     0.02500
C1589       C  0.90633593  0.37059582  0.91499093    -0.18000
C1590       C  0.91937805  0.40131602  0.93340725     0.02600
C1591       C  0.90237234  0.42083601  0.92946223     0.02500
C1592       C  0.87366509  0.40810695  0.90790641    -0.18000
H1593       H  0.86144634  0.42314051  0.90444916     0.04600
H1594       H  0.91993403  0.35685496  0.91707688     0.04600
C1595       C  0.63870315  0.01966745  0.88768526     0.02600
C1596       C  0.62197486  0.48361428  0.88912402     0.02500
C1597       C  0.59302262  0.46574054  0.91084980    -0.18000
C1598       C  0.58070316  0.48258836  0.93210675     0.02600
C1599       C  0.60027477  0.01940969  0.93373856     0.02500
C1600       C  0.62817944  0.03683664  0.91082962    -0.18000
H1601       H  0.64184884  0.06440222  0.91055692     0.04600
H1602       H  0.57961454  0.43817775  0.91080528     0.04600
C1603       C  0.63541681  0.02516838  0.62062077     0.02600
C1604       C  0.61870908  0.48903329  0.62138184     0.02500
C1605       C  0.59139672  0.47030130  0.59779079    -0.18000
C1606       C  0.57991793  0.48628721  0.57416220     0.02600
C1607       C  0.59642201  0.02307793  0.57513239     0.02500
C1608       C  0.62410218  0.04120203  0.59728052    -0.18000
H1609       H  0.63695691  0.06877377  0.59673577     0.04600
H1610       H  0.57836388  0.44278771  0.59826343     0.04600
C1611       C  0.67064213  0.33715459  0.71545249     0.46400
H1612       H  0.67466237  0.33910831  0.68639761    -0.03300
C1613       C  0.66442767  0.33477221  0.78389921     0.45800
H1614       H  0.66137873  0.33368225  0.81322754    -0.03300
C1615       C  0.64303437  0.30179125  0.72901210    -0.17000
C1616       C  0.70322794  0.34522620  0.73493209    -0.16700
C1617       C  0.66041779  0.36240288  0.72992338    -0.17100
C1618       C  0.63995792  0.30106844  0.76560199    -0.17100
C1619       C  0.70016554  0.34329040  0.77139466    -0.16600
C1620       C  0.65710950  0.36104477  0.76643353    -0.17000
C1621       C  0.62878437  0.47004021  0.64629653    -0.04900
C1622       C  0.63704998  0.48001123  0.68193888    -0.04900
C1623       C  0.64825873  0.46315978  0.70430635    -0.23000
C1624       C  0.64864855  0.43418483  0.69244311     0.19200
C1625       C  0.63771054  0.42228459  0.65774562     0.16400
C1626       C  0.62925852  0.44094454  0.63454181    -0.18100
C1627       C  0.63449515  0.39139862  0.64708117    -0.19900
C1628       C  0.64102565  0.37195927  0.67092694    -0.12500
C1629       C  0.65340857  0.38403264  0.70519551     0.04200
C1630       C  0.65856323  0.41618708  0.71503513    -0.24600
H1631       H  0.63501210  0.50096218  0.69262348     0.09300
H1632       H  0.65538651  0.47202532  0.73127943     0.12900
H1633       H  0.62265685  0.43249320  0.60738224     0.12800
H1634       H  0.62547148  0.38151685  0.62077072     0.12600
H1635       H  0.63563804  0.34707580  0.66238684     0.13100
H1636       H  0.66951048  0.42704692  0.74044067     0.15100
C1637       C  0.63366310  0.46344702  0.86871522    -0.04900
C1638       C  0.66222530  0.46204382  0.87998728    -0.04900
C1639       C  0.67257606  0.44175853  0.86228151    -0.23000
C1640       C  0.65348057  0.42108409  0.83403980     0.19200
C1641       C  0.62350182  0.42074849  0.82380309     0.16400
C1642       C  0.61395257  0.44216839  0.84098754    -0.18100
C1643       C  0.60347296  0.39876860  0.79676492    -0.19900
C1644       C  0.61362886  0.37821637  0.77925537    -0.12500
C1645       C  0.64442372  0.37994254  0.78776138     0.04200
C1646       C  0.66376387  0.40068664  0.81593623    -0.24600
H1647       H  0.67629676  0.97634055  0.90295383     0.09300
H1648       H  0.69515052  0.44177189  0.87109399     0.12900
H1649       H  0.59101922  0.44200243  0.83322662     0.12800
H1650       H  0.58012695  0.39767794  0.78896416     0.12600
H1651       H  0.59800285  0.36173460  0.75815464     0.13100
H1652       H  0.68722134  0.40162345  0.82303732     0.15100
C1653       C  0.83431031  0.37081554  0.86281967    -0.04900
C1654       C  0.84404162  0.39222535  0.83291734    -0.04900
C1655       C  0.81994707  0.39097853  0.80940745    -0.23000
C1656       C  0.78538037  0.36819608  0.81524088     0.19200
C1657       C  0.77503084  0.34562928  0.84449384     0.16400
C1658       C  0.79962046  0.34711284  0.86840154    -0.18100
C1659       C  0.74023765  0.32270218  0.84958199    -0.19900
C1660       C  0.71626182  0.32213334  0.82585006    -0.12500
C1661       C  0.72631113  0.34477490  0.79678816     0.04200
C1662       C  0.76112104  0.36823199  0.79238420    -0.24600
H1663       H  0.87055671  0.41071212  0.82828859     0.09300
H1664       H  0.82833768  0.40822517  0.78694959     0.12900
H1665       H  0.79186584  0.33077400  0.89158373     0.12800
H1666       H  0.73158010  0.30512098  0.87173662     0.12600
H1667       H  0.68973313  0.30356619  0.83010871     0.13100
H1668       H  0.76962612  0.38730964  0.77210556     0.15100
C1669       C  0.61555848  0.27192514  0.78739016    -0.04900
C1670       C  0.59244964  0.27544189  0.80914382    -0.04900
C1671       C  0.56930345  0.24841616  0.83032535    -0.23000
C1672       C  0.56914646  0.21755750  0.83022951     0.19200
C1673       C  0.59233357  0.21382181  0.80819767     0.16400
C1674       C  0.61559412  0.24115469  0.78707856    -0.18100
C1675       C  0.59206323  0.18292489  0.80795361    -0.19900
C1676       C  0.56935647  0.15611876  0.82964222    -0.12500
C1677       C  0.54649051  0.15970293  0.85187252     0.04200
C1678       C  0.54654558  0.19055040  0.85212732    -0.24600
H1679       H  0.59223628  0.29913959  0.80951189     0.09300
H1680       H  0.55166135  0.25170170  0.84689327     0.12900
H1681       H  0.63364876  0.23861344  0.77039688     0.12800
H1682       H  0.60954849  0.17957013  0.79119657     0.12600
H1683       H  0.56966006  0.13246783  0.82924370     0.13100
H1684       H  0.52919582  0.19350243  0.86955260     0.15100
C1685       C  0.73438278  0.35514787  0.71408035    -0.04900
C1686       C  0.75713320  0.38972706  0.70765352    -0.04900
C1687       C  0.78583607  0.39988388  0.68641613    -0.23000
C1688       C  0.79094675  0.37552827  0.66920704     0.19200
C1689       C  0.76665024  0.34065583  0.67317814     0.16400
C1690       C  0.73873073  0.33058343  0.69615442    -0.18100
C1691       C  0.77019374  0.31670411  0.65315967    -0.19900
C1692       C  0.79779285  0.32719516  0.62996527    -0.12500
C1693       C  0.82373514  0.36148789  0.62804580     0.04200
C1694       C  0.81962080  0.38556815  0.64754704    -0.24600
H1695       H  0.75291311  0.40890013  0.71975600     0.09300
H1696       H  0.80362354  0.42676405  0.68282838     0.12900
H1697       H  0.71999807  0.30389446  0.69942069     0.12800
H1698       H  0.75115636  0.28998646  0.65469030     0.12600
H1699       H  0.79813731  0.30838517  0.61299925     0.13100
H1700       H  0.83880282  0.41224777  0.64589034     0.15100
C1701       C  0.62225232  0.27285562  0.70386335    -0.04900
C1702       C  0.63601781  0.27137180  0.67072052    -0.04900
C1703       C  0.61710264  0.24535567  0.64651943    -0.23000
C1704       C  0.58470838  0.21872420  0.65569858     0.19200
C1705       C  0.57116719  0.21885218  0.68933732     0.16400
C1706       C  0.58886047  0.24681856  0.71201528    -0.18100
C1707       C  0.54069713  0.19042637  0.70029673    -0.19900
C1708       C  0.52385783  0.16224494  0.67808627    -0.12500
C1709       C  0.53486946  0.16298674  0.64283778     0.04200
C1710       C  0.56588238  0.19171199  0.63212729    -0.24600
H1711       H  0.66169167  0.29005317  0.66328139     0.09300
H1712       H  0.62836609  0.24542992  0.62110252     0.12900
H1713       H  0.57624681  0.24779643  0.73589830     0.12800
H1714       H  0.53066187  0.18933342  0.72671311     0.12600
H1715       H  0.50230551  0.13981234  0.68903673     0.13100
H1716       H  0.57565660  0.19318880  0.60553733     0.15100
C1717       C  0.86453676  0.32471416  0.62611146    -0.04900
C1718       C  0.84422286  0.29328771  0.60947981    -0.04900
C1719       C  0.83548391  0.26285415  0.62707321    -0.23000
C1720       C  0.84897351  0.26341899  0.66056029     0.19200
C1721       C  0.87203344  0.29505346  0.67597992     0.16400
C1722       C  0.87914893  0.32547779  0.65899515    -0.18100
C1723       C  0.88787505  0.29567653  0.70789408    -0.19900
C1724       C  0.87983897  0.26535131  0.72514185    -0.12500
C1725       C  0.85437771  0.23388619  0.71195423     0.04200
C1726       C  0.83990066  0.23302040  0.67889049    -0.24600
H1727       H  0.83452657  0.29238421  0.58308865     0.09300
H1728       H  0.81859096  0.23891685  0.61428077     0.12900
H1729       H  0.89651404  0.34976749  0.67092189     0.12800
H1730       H  0.90640530  0.31960756  0.71958342     0.12600
H1731       H  0.89258663  0.26656432  0.74971423     0.13100
H1732       H  0.82093902  0.20888117  0.66793600     0.15100
C1733       C  0.83682619  0.22681501  0.79156008    -0.04900
C1734       C  0.82230378  0.24531718  0.77764748    -0.04900
C1735       C  0.82668718  0.27441808  0.79465120    -0.23000
C1736       C  0.84292301  0.28374910  0.82747972     0.19200
C1737       C  0.85254346  0.26217113  0.84432351     0.16400
C1738       C  0.85038455  0.23436538  0.82589906    -0.18100
C1739       C  0.86502593  0.26941786  0.87886339    -0.19900
C1740       C  0.86964103  0.29871316  0.89570175    -0.12500
C1741       C  0.86452173  0.32298005  0.87748373     0.04200
C1742       C  0.85045459  0.31464192  0.84327034    -0.24600
H1743       H  0.80922659  0.23844270  0.75251545     0.09300
H1744       H  0.81761033  0.28974174  0.78199582     0.12900
H1745       H  0.86059852  0.21970209  0.83773587     0.12800
H1746       H  0.87135176  0.25251520  0.89285828     0.12600
H1747       H  0.87855371  0.30290961  0.92277857     0.13100
H1748       H  0.84685572  0.33244570  0.82767150     0.15100
C1749       C  0.96908074  0.12662844  0.85200785    -0.04900
C1750       C  0.97923188  0.13610101  0.81638369    -0.04900
C1751       C  0.96303609  0.14877914  0.79503044    -0.23000
C1752       C  0.93423019  0.14914073  0.80760668     0.19200
C1753       C  0.92189572  0.13670085  0.84197382     0.16400
C1754       C  0.94009581  0.12707102  0.86437492    -0.18100
C1755       C  0.89121754  0.13354680  0.85321373    -0.19900
C1756       C  0.87231030  0.14150166  0.83023521    -0.12500
C1757       C  0.88451236  0.15504182  0.79602092     0.04200
C1758       C  0.91683305  0.16051868  0.78602364    -0.24600
H1759       H  0.49977622  0.13389380  0.80484613     0.09300
H1760       H  0.97220993  0.15697418  0.76815330     0.12900
H1761       H  0.93140714  0.11974866  0.89151161     0.12800
H1762       H  0.88102522  0.12349852  0.87938228     0.12600
H1763       H  0.84783364  0.13622922  0.83971870     0.13100
H1764       H  0.92879186  0.17331507  0.76150103     0.15100
C1765       C  0.88863798  0.15983456  0.71167281    -0.04900
C1766       C  0.90947727  0.18625896  0.68818316    -0.04900
C1767       C  0.93177416  0.18292541  0.66523008    -0.23000
C1768       C  0.93341622  0.15299536  0.66535285     0.19200
C1769       C  0.91227052  0.12618980  0.68889218     0.16400
C1770       C  0.88968302  0.12960697  0.71154187    -0.18100
C1771       C  0.91389481  0.09630854  0.68921905    -0.19900
C1772       C  0.93592340  0.09275755  0.66621902    -0.12500
C1773       C  0.95683607  0.11906418  0.64260045     0.04200
C1774       C  0.95552418  0.14920420  0.64218807    -0.24600
H1775       H  0.90846888  0.20954355  0.68771270     0.09300
H1776       H  0.94764187  0.20368399  0.64735781     0.12900
H1777       H  0.87308230  0.10898041  0.72924527     0.12800
H1778       H  0.89802150  0.07561002  0.70716429     0.12600
H1779       H  0.93676935  0.06939702  0.66680864     0.13100
H1780       H  0.97152279  0.16942433  0.62380047     0.15100
C1781       C  0.66479037  0.04060730  0.86040660    -0.04900
C1782       C  0.65856530  0.06143486  0.83769686    -0.04900
C1783       C  0.68368867  0.08445207  0.81451973    -0.23000
C1784       C  0.71545296  0.08671661  0.81304324     0.19200
C1785       C  0.72176566  0.06525643  0.83495667     0.16400
C1786       C  0.69672907  0.04300636  0.85907908    -0.18100
C1787       C  0.75332817  0.06703256  0.83288919    -0.19900
C1788       C  0.77847114  0.09009753  0.80972871    -0.12500
C1789       C  0.77283589  0.11230591  0.78883042     0.04200
C1790       C  0.74127802  0.11061024  0.79072052    -0.24600
H1791       H  0.63432637  0.06041776  0.83858678     0.09300
H1792       H  0.67831585  0.10063919  0.79789910     0.12900
H1793       H  0.70279741  0.02881577  0.87770730     0.12800
H1794       H  0.75860768  0.05062219  0.84924213     0.12600
H1795       H  0.80255148  0.09088167  0.80835778     0.13100
H1796       H  0.73714499  0.12854133  0.77580803     0.15100
C1797       C  0.66428446  0.04801855  0.64386127    -0.04900
C1798       C  0.66251010  0.07379823  0.66265201    -0.04900
C1799       C  0.68998911  0.09768425  0.68215681    -0.23000
C1800       C  0.71959122  0.09580605  0.68412602     0.19200
C1801       C  0.72156533  0.06945073  0.66638788     0.16400
C1802       C  0.69406411  0.04601619  0.64576170    -0.18100
C1803       C  0.75110253  0.06726427  0.66957156    -0.19900
C1804       C  0.77805515  0.09065828  0.69051020    -0.12500
C1805       C  0.77591371  0.11667538  0.70804504     0.04200
C1806       C  0.74711638  0.11972499  0.70392231    -0.24600
H1807       H  0.63978243  0.07570426  0.66180003     0.09300
H1808       H  0.68798568  0.11752389  0.69590263     0.12900
H1809       H  0.69581511  0.02644678  0.63114316     0.12800
H1810       H  0.75315598  0.04726393  0.65629199     0.12600
H1811       H  0.80041656  0.08830165  0.69336019     0.13100
H1812       H  0.74605379  0.14058605  0.71648867     0.15100
C1813       C  0.83319157  0.66687154  0.28573321     0.45800
H1814       H  0.83015474  0.66612120  0.31486629    -0.03300
C1815       C  0.83746860  0.66921224  0.21694659     0.45800
H1816       H  0.83909053  0.66985299  0.18749718    -0.03300
C1817       C  0.80132508  0.63913572  0.26771771    -0.17000
C1818       C  0.83856091  0.70039145  0.26971256    -0.16700
C1819       C  0.86266852  0.66221986  0.27147367    -0.17100
C1820       C  0.80339556  0.64054279  0.23142549    -0.17100
C1821       C  0.84251257  0.70219725  0.23335580    -0.16600
C1822       C  0.86440905  0.66357709  0.23467195    -0.17000
O1823       O  0.56874420  0.60867473  0.46438661    -0.72700
O1824       O  0.60871977  0.57094512  0.03663128    -0.73600
O1825       O  0.60772158  0.57263710  0.46010092    -0.62300
O1826       O  0.57018965  0.60775304  0.04131393    -0.70700
O1827       O  0.52204116  0.56597905  0.02339072    -0.70200
O1828       O  0.56767737  0.52388386  0.47960185    -0.61500
O1829       O  0.55550581  0.53444480  0.04914680    -0.74000
O1830       O  0.53318274  0.55480770  0.45360155    -0.72800
Cu1831     Cu  0.59175576  0.59303817  0.50063518     1.04600
Cu1832     Cu  0.54326172  0.54341348  0.50141921     1.04300
C1833       C  0.54250721  0.58580426  0.44812974     0.93500
C1834       C  0.58658821  0.54412880  0.05316112     0.92700
C1835       C  0.59207069  0.53996690  0.45878720     0.84800
C1836       C  0.53758649  0.59083948  0.04353497     0.91100
O1837       O  0.89102161  0.95994229  0.46301187    -0.72700
O1838       O  0.93192006  0.54081227  0.03255964    -0.73600
O1839       O  0.93103060  0.53616735  0.45539912    -0.62300
O1840       O  0.89154706  0.96431906  0.03926074    -0.70700
O1841       O  0.93288806  0.95677410  0.02275156    -0.70200
O1842       O  0.97890784  0.54200197  0.47300137    -0.61500
O1843       O  0.96841460  0.52421425  0.04445195    -0.74000
O1844       O  0.94394522  0.97534050  0.45155405    -0.72800
Cu1845     Cu  0.90863243  0.00053760  0.49748224     1.04600
Cu1846     Cu  0.95726921  0.49954595  0.49804232     1.04300
C1847       C  0.91275105  0.95383504  0.44804146     0.93500
C1848       C  0.95876604  0.54576402  0.04872116     0.92700
C1849       C  0.96363467  0.55134281  0.45257922     0.84800
C1850       C  0.90736259  0.94759330  0.04202487     0.91100
O1851       O  0.96025363  0.89323204  0.03762915    -0.72700
O1852       O  0.54188144  0.93348642  0.46860150    -0.73600
O1853       O  0.53649401  0.93222044  0.04542426    -0.62300
O1854       O  0.96520638  0.89470640  0.46181964    -0.70700
O1855       O  0.95930230  0.93777351  0.47535232    -0.70200
O1856       O  0.54138719  0.98027070  0.02935927    -0.61500
O1857       O  0.52723137  0.97149961  0.45668365    -0.74000
O1858       O  0.97323167  0.94585407  0.04753302    -0.72800
Cu1859     Cu  0.00104776  0.91079537  0.00344299     1.04600
Cu1860     Cu  0.50035858  0.96011949  0.50218931     1.04300
C1861       C  0.95264143  0.91426267  0.05159823     0.93500
C1862       C  0.54821325  0.96109132  0.45280316     0.92700
C1863       C  0.55139243  0.96480018  0.04872999     0.84800
C1864       C  0.94936143  0.91132048  0.45764445     0.91100
C1865       C  0.97896763  0.61378011  0.11776001     0.02600
C1866       C  0.51511464  0.63370416  0.11765313     0.02500
C1867       C  0.53305684  0.62507688  0.09299268    -0.18000
C1868       C  0.51647816  0.59774299  0.06922990     0.02600
C1869       C  0.97984281  0.57704948  0.07085373     0.02500
C1870       C  0.96227721  0.58635043  0.09438872    -0.18000
H1871       H  0.93478237  0.57130939  0.09520787     0.04600
H1872       H  0.56049885  0.63922449  0.09276419     0.04600
C1873       C  0.87472074  0.85682742  0.10667116     0.02600
C1874       C  0.85500562  0.87305782  0.10568185     0.02500
C1875       C  0.86679019  0.90286786  0.08483704    -0.18000
C1876       C  0.89793953  0.91759494  0.06630136     0.02600
C1877       C  0.91890924  0.90204561  0.06992541     0.02500
C1878       C  0.90617426  0.87175083  0.08931058    -0.18000
H1879       H  0.92119511  0.85938202  0.09111712     0.04600
H1880       H  0.85122966  0.91458443  0.08273556     0.04600
C1881       C  0.98793754  0.61583280  0.37644541     0.02600
C1882       C  0.52393095  0.63147613  0.37604584     0.02500
C1883       C  0.53996726  0.62066113  0.39991786    -0.18000
C1884       C  0.52180911  0.59472439  0.42448110     0.02600
C1885       C  0.98519115  0.57886094  0.42600958     0.02500
C1886       C  0.96927332  0.58947226  0.40140148    -0.18000
H1887       H  0.94184141  0.57667643  0.40154926     0.04600
H1888       H  0.56743683  0.63284735  0.39935185     0.04600
C1889       C  0.86089908  0.87732051  0.38947049     0.02600
C1890       C  0.87677280  0.85733933  0.39387149     0.02500
C1891       C  0.90634494  0.87060884  0.41498293    -0.18000
C1892       C  0.91938249  0.90132657  0.43340229     0.02600
C1893       C  0.90237414  0.92084421  0.42945862     0.02500
C1894       C  0.87366759  0.90811407  0.40790149    -0.18000
H1895       H  0.86144670  0.92314567  0.40444461     0.04600
H1896       H  0.91994625  0.85687102  0.41706695     0.04600
C1897       C  0.63869981  0.51965828  0.38768252     0.02600
C1898       C  0.62197657  0.98362321  0.38912381     0.02500
C1899       C  0.59302337  0.96574922  0.41084834    -0.18000
C1900       C  0.58070412  0.98259676  0.43210637     0.02600
C1901       C  0.60027259  0.51940128  0.43373647     0.02500
C1902       C  0.62817587  0.53682790  0.41082565    -0.18000
H1903       H  0.64184429  0.56439356  0.41055079     0.04600
H1904       H  0.57961459  0.93818658  0.41080223     0.04600
C1905       C  0.63541428  0.52516930  0.12062539     0.02600
C1906       C  0.61871036  0.98903199  0.12137789     0.02500
C1907       C  0.59139666  0.97030091  0.09778796    -0.18000
C1908       C  0.57991767  0.98628792  0.07416106     0.02600
C1909       C  0.59642182  0.52307716  0.07513260     0.02500
C1910       C  0.62410060  0.54120206  0.09728241    -0.18000
H1911       H  0.63695513  0.56877375  0.09673621     0.04600
H1912       H  0.57836240  0.94278738  0.09826048     0.04600
C1913       C  0.67063827  0.83715414  0.21545550     0.46400
H1914       H  0.67465652  0.83910799  0.18640016    -0.03300
C1915       C  0.66442645  0.83477326  0.28390236     0.45800
H1916       H  0.66137794  0.83368405  0.31323066    -0.03300
C1917       C  0.64303333  0.80179018  0.22901598    -0.17000
C1918       C  0.70322570  0.84522844  0.23493314    -0.16700
C1919       C  0.66041219  0.86240070  0.22992689    -0.17100
C1920       C  0.63995795  0.80106762  0.26560601    -0.17100
C1921       C  0.70016520  0.84329373  0.27139628    -0.16600
C1922       C  0.65710561  0.86104439  0.26643701    -0.17000
C1923       C  0.62878476  0.97003835  0.14629324    -0.04900
C1924       C  0.63705719  0.98001410  0.18193370    -0.04900
C1925       C  0.64826562  0.96316265  0.20430130    -0.23000
C1926       C  0.64864733  0.93418280  0.19244164     0.19200
C1927       C  0.63770071  0.92227695  0.15774737     0.16400
C1928       C  0.62925003  0.94093705  0.13454230    -0.18100
C1929       C  0.63447623  0.89138592  0.14708774    -0.19900
C1930       C  0.64100804  0.87194830  0.17093454    -0.12500
C1931       C  0.65340035  0.88402785  0.20519887     0.04200
C1932       C  0.65856229  0.91618575  0.21503400    -0.24600
H1933       H  0.63502410  0.00096790  0.19261714     0.09300
H1934       H  0.65539935  0.97203237  0.23127266     0.12900
H1935       H  0.62264274  0.93248138  0.10738443     0.12800
H1936       H  0.62544533  0.88149952  0.12078001     0.12600
H1937       H  0.63561526  0.84706191  0.16239907     0.13100
H1938       H  0.66951544  0.92704869  0.24043720     0.15100
C1939       C  0.63366490  0.96345570  0.36871466    -0.04900
C1940       C  0.66222335  0.96204723  0.37999074    -0.04900
C1941       C  0.67257340  0.94176090  0.36228561    -0.23000
C1942       C  0.65348006  0.92108916  0.33404134     0.19200
C1943       C  0.62350478  0.92075872  0.32380045     0.16400
C1944       C  0.61395720  0.94218083  0.34098334    -0.18100
C1945       C  0.60347697  0.89878055  0.29676078    -0.19900
C1946       C  0.61362970  0.87822412  0.27925464    -0.12500
C1947       C  0.64442166  0.87994513  0.28776416     0.04200
C1948       C  0.66376121  0.90068853  0.31593999    -0.24600
H1949       H  0.67629965  0.47633894  0.40294902     0.09300
H1950       H  0.69514535  0.94177064  0.37110141     0.12900
H1951       H  0.59102627  0.94201853  0.33321909     0.12800
H1952       H  0.58013334  0.89769371  0.28895664     0.12600
H1953       H  0.59800381  0.86174336  0.25815339     0.13100
H1954       H  0.68721660  0.90162195  0.32304409     0.15100
C1955       C  0.83431521  0.87082069  0.36281422    -0.04900
C1956       C  0.84404682  0.89222041  0.33290369    -0.04900
C1957       C  0.81995148  0.89097060  0.30939300    -0.23000
C1958       C  0.78538408  0.86819684  0.31523413     0.19200
C1959       C  0.77503437  0.84564094  0.34449688     0.16400
C1960       C  0.79962469  0.84712684  0.36840474    -0.18100
C1961       C  0.74024076  0.82272247  0.34959368    -0.19900
C1962       C  0.71626409  0.82215047  0.32586115    -0.12500
C1963       C  0.72631311  0.84478158  0.29678941     0.04200
C1964       C  0.76112396  0.86822978  0.29237716    -0.24600
H1965       H  0.87056255  0.91070082  0.32826895     0.09300
H1966       H  0.82834244  0.90820932  0.28692737     0.12900
H1967       H  0.79187006  0.83079637  0.39159429     0.12800
H1968       H  0.73158294  0.80514921  0.37175643     0.12600
H1969       H  0.68973508  0.80358879  0.33012706     0.13100
H1970       H  0.76963130  0.88730186  0.27208827     0.15100
C1971       C  0.61556170  0.77192189  0.28739410    -0.04900
C1972       C  0.59245282  0.77543485  0.30915152    -0.04900
C1973       C  0.56930598  0.74840515  0.33032841    -0.23000
C1974       C  0.56914811  0.71754609  0.33022417     0.19200
C1975       C  0.59233641  0.71381454  0.30819016     0.16400
C1976       C  0.61559797  0.74115159  0.28707601    -0.18100
C1977       C  0.59206547  0.68291723  0.30793862    -0.19900
C1978       C  0.56935713  0.65610681  0.32962217    -0.12500
C1979       C  0.54648970  0.65968696  0.35185410     0.04200
C1980       C  0.54654507  0.69053448  0.35211583    -0.24600
H1981       H  0.59223900  0.79913223  0.30952507     0.09300
H1982       H  0.55166327  0.75168766  0.34689874     0.12900
H1983       H  0.63365290  0.73861316  0.27039176     0.12800
H1984       H  0.60955177  0.67956556  0.29117986     0.12600
H1985       H  0.56966092  0.63245608  0.32921889     0.13100
H1986       H  0.52919454  0.69348353  0.36954297     0.15100
C1987       C  0.73437887  0.85514968  0.21407784    -0.04900
C1988       C  0.75712588  0.88972855  0.20764436    -0.04900
C1989       C  0.78582659  0.89988457  0.18640329    -0.23000
C1990       C  0.79093861  0.87552813  0.16919785     0.19200
C1991       C  0.76664487  0.84065564  0.17317513     0.16400
C1992       C  0.73872747  0.83058432  0.19615448    -0.18100
C1993       C  0.77018936  0.81670265  0.15316027    -0.19900
C1994       C  0.79778750  0.82719216  0.12996445    -0.12500
C1995       C  0.82372833  0.86148548  0.12804001     0.04200
C1996       C  0.81961188  0.88556707  0.14753652    -0.24600
H1997       H  0.75290537  0.90890187  0.21974495     0.09300
H1998       H  0.80361168  0.92676468  0.18281072     0.12900
H1999       H  0.71999708  0.80389528  0.19942560     0.12800
H2000       H  0.75115367  0.78998453  0.15469505     0.12600
H2001       H  0.79813207  0.80838085  0.11300180     0.13100
H2002       H  0.83879213  0.91224702  0.14587611     0.15100
C2003       C  0.62225341  0.77285367  0.20386696    -0.04900
C2004       C  0.63602064  0.77137206  0.17072440    -0.04900
C2005       C  0.61710701  0.74535778  0.14652096    -0.23000
C2006       C  0.58471195  0.71872588  0.15569681     0.19200
C2007       C  0.57116907  0.71885076  0.18933560     0.16400
C2008       C  0.58886168  0.74681491  0.21201703    -0.18100
C2009       C  0.54069723  0.69042462  0.20029075    -0.19900
C2010       C  0.52385729  0.66224663  0.17807571    -0.12500
C2011       C  0.53487132  0.66299174  0.14282755     0.04200
C2012       C  0.56588656  0.69171662  0.13212176    -0.24600
H2013       H  0.66169476  0.79005431  0.16328693     0.09300
H2014       H  0.62837184  0.74543433  0.12110422     0.12900
H2015       H  0.57624741  0.74779045  0.23590072     0.12800
H2016       H  0.53066036  0.68932900  0.22670685     0.12600
H2017       H  0.50230270  0.63981373  0.18902258     0.13100
H2018       H  0.57566272  0.69319550  0.10553235     0.15100
C2019       C  0.86453148  0.82471112  0.12610567    -0.04900
C2020       C  0.84421627  0.79328403  0.10947554    -0.04900
C2021       C  0.83547788  0.76285096  0.12706990    -0.23000
C2022       C  0.84896976  0.76341675  0.16055596     0.19200
C2023       C  0.87203172  0.79505175  0.17597320     0.16400
C2024       C  0.87914626  0.82547555  0.15898790    -0.18100
C2025       C  0.88787628  0.79567588  0.20788555    -0.19900
C2026       C  0.87984092  0.76535134  0.22513433    -0.12500
C2027       C  0.85437726  0.73388578  0.21195004     0.04200
C2028       C  0.83989740  0.73301881  0.17888757    -0.24600
H2029       H  0.83451819  0.79237972  0.08308511     0.09300
H2030       H  0.81858348  0.73891317  0.11427891     0.12900
H2031       H  0.89651280  0.84976568  0.17091320     0.12800
H2032       H  0.90640836  0.81960734  0.21957275     0.12600
H2033       H  0.89259111  0.76656538  0.24970519     0.13100
H2034       H  0.82093399  0.70887923  0.16793518     0.15100
C2035       C  0.83683625  0.72682164  0.29155789    -0.04900
C2036       C  0.82231114  0.74532175  0.27764622    -0.04900
C2037       C  0.82669564  0.77442370  0.29464820    -0.23000
C2038       C  0.84293503  0.78375805  0.32747451     0.19200
C2039       C  0.85255966  0.76218291  0.34431763     0.16400
C2040       C  0.85039985  0.73437617  0.32589439    -0.18100
C2041       C  0.86504554  0.76943273  0.37885593    -0.19900
C2042       C  0.86965850  0.79872735  0.39569385    -0.12500
C2043       C  0.86453422  0.82299143  0.37747628     0.04200
C2044       C  0.85046482  0.81465055  0.34326426    -0.24600
H2045       H  0.80923043  0.73844438  0.25251636     0.09300
H2046       H  0.81761580  0.78974538  0.28199329     0.12900
H2047       H  0.86061618  0.71971441  0.33773053     0.12800
H2048       H  0.87137482  0.75253220  0.39285064     0.12600
H2049       H  0.87857271  0.80292525  0.42277002     0.13100
H2050       H  0.84686168  0.83245206  0.32766552     0.15100
C2051       C  0.96908177  0.62661311  0.35198881    -0.04900
C2052       C  0.97922986  0.63608192  0.31636338    -0.04900
C2053       C  0.96303355  0.64876002  0.29501019    -0.23000
C2054       C  0.93423189  0.64912856  0.30758991     0.19200
C2055       C  0.92190242  0.63669544  0.34195993     0.16400
C2056       C  0.94010143  0.62706263  0.36435912    -0.18100
C2057       C  0.89123041  0.63355197  0.35320601    -0.19900
C2058       C  0.87232358  0.64151032  0.33023084    -0.12500
C2059       C  0.88451904  0.65504195  0.29601237     0.04200
C2060       C  0.91683492  0.66050850  0.28600829    -0.24600
H2061       H  0.49977150  0.63387104  0.30482532     0.09300
H2062       H  0.97220413  0.65695082  0.26813175     0.12900
H2063       H  0.93141626  0.61974441  0.39149707     0.12800
H2064       H  0.88104264  0.62351014  0.37937721     0.12600
H2065       H  0.84785199  0.63624693  0.33972133     0.13100
H2066       H  0.92879070  0.67329939  0.26148323     0.15100
C2067       C  0.88863354  0.65983465  0.21166180    -0.04900
C2068       C  0.90947175  0.68626110  0.18817349    -0.04900
C2069       C  0.93176882  0.68293016  0.16521787    -0.23000
C2070       C  0.93341255  0.65300093  0.16533711     0.19200
C2071       C  0.91226607  0.62619261  0.18887337     0.16400
C2072       C  0.88967774  0.62960675  0.21152472    -0.18100
C2073       C  0.91389150  0.59631207  0.18919705    -0.19900
C2074       C  0.93592275  0.59276475  0.16619785    -0.12500
C2075       C  0.95683688  0.61907406  0.14258262     0.04200
C2076       C  0.95552346  0.64921346  0.14217273    -0.24600
H2077       H  0.90846313  0.70954557  0.18770672     0.09300
H2078       H  0.94763625  0.70369062  0.14734748     0.12900
H2079       H  0.87307731  0.60897840  0.22922638     0.12800
H2080       H  0.89801750  0.57561144  0.20713974     0.12600
H2081       H  0.93676947  0.56940460  0.16678544     0.13100
H2082       H  0.97152286  0.66943564  0.12378759     0.15100
C2083       C  0.66478717  0.54059726  0.36040355    -0.04900
C2084       C  0.65855837  0.56141725  0.33768616    -0.04900
C2085       C  0.68368235  0.58443607  0.31451033    -0.23000
C2086       C  0.71545147  0.58671062  0.31304354     0.19200
C2087       C  0.72176813  0.56525815  0.33496521     0.16400
C2088       C  0.69673010  0.54300560  0.35908505    -0.18100
C2089       C  0.75333564  0.56704442  0.33290792    -0.19900
C2090       C  0.77847933  0.59011105  0.30974914    -0.12500
C2091       C  0.77284014  0.61231174  0.28884196     0.04200
C2092       C  0.74127707  0.61060613  0.29072210    -0.24600
H2093       H  0.63431613  0.56039330  0.33856951     0.09300
H2094       H  0.67830625  0.60061724  0.29788330     0.12900
H2095       H  0.70280024  0.52881994  0.37771907     0.12800
H2096       H  0.75861826  0.55063977  0.34926716     0.12600
H2097       H  0.80256243  0.59090076  0.30838460     0.13100
H2098       H  0.73713969  0.62853050  0.27580192     0.15100
C2099       C  0.66428126  0.54802004  0.14386707    -0.04900
C2100       C  0.66251118  0.57380664  0.16264867    -0.04900
C2101       C  0.68999103  0.59769376  0.18215196    -0.23000
C2102       C  0.71958916  0.59580906  0.18413030     0.19200
C2103       C  0.72155804  0.56944593  0.16640333     0.16400
C2104       C  0.69405714  0.54601153  0.14577684    -0.18100
C2105       C  0.75108997  0.56725149  0.16959783    -0.19900
C2106       C  0.77804324  0.59064661  0.19053475    -0.12500
C2107       C  0.77590827  0.61667304  0.20805643     0.04200
C2108       C  0.74711560  0.61972938  0.20392450    -0.24600
H2109       H  0.63978651  0.57571769  0.16179030     0.09300
H2110       H  0.68799126  0.61753913  0.19588948     0.12900
H2111       H  0.69580572  0.52643746  0.13116528     0.12800
H2112       H  0.75313881  0.54724453  0.15632776     0.12600
H2113       H  0.80040075  0.58828432  0.19339271     0.13100
H2114       H  0.74605742  0.64059614  0.21648246     0.15100
C2115       C  0.83319161  0.66687158  0.78573323     0.45800
H2116       H  0.83015471  0.66612122  0.81486628    -0.03300
C2117       C  0.83746872  0.66921235  0.71694662     0.45800
H2118       H  0.83909068  0.66985312  0.68749721    -0.03300
C2119       C  0.80132520  0.63913567  0.76771768    -0.17000
C2120       C  0.83856081  0.70039144  0.76971259    -0.16700
C2121       C  0.86266869  0.66222008  0.77147374    -0.17100
C2122       C  0.80339571  0.64054279  0.73142546    -0.17100
C2123       C  0.84251251  0.70219728  0.73335584    -0.16600
C2124       C  0.86440926  0.66357734  0.73467201    -0.17000
O2125       O  0.56874452  0.60867493  0.96438678    -0.72700
O2126       O  0.60871963  0.57094512  0.53663114    -0.73600
O2127       O  0.60772184  0.57263721  0.96010105    -0.62300
O2128       O  0.57018950  0.60775302  0.54131375    -0.70700
O2129       O  0.52204098  0.56597893  0.52339072    -0.70200
O2130       O  0.56767758  0.52388397  0.97960193    -0.61500
O2131       O  0.55550570  0.53444474  0.54914675    -0.74000
O2132       O  0.53318308  0.55480793  0.95360158    -0.72800
Cu2133     Cu  0.59175599  0.59303825  0.00063535     1.04600
Cu2134     Cu  0.54326193  0.54341361  0.00141924     1.04300
C2135       C  0.54250756  0.58580450  0.94812984     0.93500
C2136       C  0.58658812  0.54412880  0.55316103     0.92700
C2137       C  0.59207093  0.53996700  0.95878731     0.84800
C2138       C  0.53758634  0.59083944  0.54353489     0.91100
O2139       O  0.89102157  0.95994237  0.96301193    -0.72700
O2140       O  0.93192013  0.54081232  0.53255948    -0.73600
O2141       O  0.93103055  0.53616748  0.95539924    -0.62300
O2142       O  0.89154711  0.96431900  0.53926061    -0.70700
O2143       O  0.93288824  0.95677417  0.52275161    -0.70200
O2144       O  0.97890777  0.54200201  0.97300148    -0.61500
O2145       O  0.96841476  0.52421442  0.54445189    -0.74000
O2146       O  0.94394518  0.97534065  0.95155406    -0.72800
Cu2147     Cu  0.90863239  0.00053767  0.99748240     1.04600
Cu2148     Cu  0.95726906  0.49954591  0.99804231     1.04300
C2149       C  0.91275103  0.95383517  0.94804147     0.93500
C2150       C  0.95876616  0.54576417  0.54872099     0.92700
C2151       C  0.96363463  0.55134294  0.95257937     0.84800
C2152       C  0.90736269  0.94759328  0.54202480     0.91100
O2153       O  0.96025367  0.89323192  0.53762914    -0.72700
O2154       O  0.54188155  0.93348645  0.96860163    -0.73600
O2155       O  0.53649399  0.93222041  0.54542415    -0.62300
O2156       O  0.96520638  0.89470653  0.96181963    -0.70700
O2157       O  0.95930240  0.93777372  0.97535220    -0.70200
O2158       O  0.54138703  0.98027063  0.52935923    -0.61500
O2159       O  0.52723161  0.97149972  0.95668370    -0.74000
O2160       O  0.97323168  0.94585393  0.54753310    -0.72800
Cu2161     Cu  0.00104779  0.91079531  0.50344298     1.04600
Cu2162     Cu  0.50035877  0.96011963  0.00218932     1.04300
C2163       C  0.95264144  0.91426252  0.55159822     0.93500
C2164       C  0.54821346  0.96109139  0.95280328     0.92700
C2165       C  0.55139236  0.96480016  0.54872990     0.84800
C2166       C  0.94936149  0.91132065  0.95764439     0.91100
C2167       C  0.97896769  0.61378055  0.61775946     0.02600
C2168       C  0.51511475  0.63370427  0.61765305     0.02500
C2169       C  0.53305683  0.62507693  0.59299255    -0.18000
C2170       C  0.51647809  0.59774301  0.56922983     0.02600
C2171       C  0.97984292  0.57704974  0.57085342     0.02500
C2172       C  0.96227729  0.58635079  0.59438827    -0.18000
H2173       H  0.93478246  0.57130973  0.59520743     0.04600
H2174       H  0.56049890  0.63922456  0.59276399     0.04600
C2175       C  0.87472059  0.85682719  0.60667083     0.02600
C2176       C  0.85500553  0.87305764  0.60568151     0.02500
C2177       C  0.86679016  0.90286773  0.58483677    -0.18000
C2178       C  0.89793954  0.91759484  0.56630120     0.02600
C2179       C  0.91890920  0.90204544  0.56992526     0.02500
C2180       C  0.90617412  0.87175059  0.58931032    -0.18000
H2181       H  0.92119495  0.85938174  0.59111686     0.04600
H2182       H  0.85122966  0.91458433  0.58273530     0.04600
C2183       C  0.98793769  0.61583313  0.87644568     0.02600
C2184       C  0.52393142  0.63147658  0.87604607     0.02500
C2185       C  0.53996770  0.62066154  0.89991809    -0.18000
C2186       C  0.52180950  0.59472470  0.92448122     0.02600
C2187       C  0.98519116  0.57886113  0.92600980     0.02500
C2188       C  0.96927340  0.58947258  0.90140174    -0.18000
H2189       H  0.94184150  0.57667685  0.90154953     0.04600
H2190       H  0.56743726  0.63284777  0.89935215     0.04600
C2191       C  0.86089920  0.87732067  0.88947034     0.02600
C2192       C  0.87677292  0.85733949  0.89387137     0.02500
C2193       C  0.90634505  0.87060902  0.91498283    -0.18000
C2194       C  0.91938255  0.90132675  0.93340222     0.02600
C2195       C  0.90237417  0.92084435  0.92945857     0.02500
C2196       C  0.87366765  0.90811422  0.90790138    -0.18000
H2197       H  0.86144675  0.92314579  0.90444449     0.04600
H2198       H  0.91994639  0.85687125  0.91706683     0.04600
C2199       C  0.63870004  0.51965827  0.88768268     0.02600
C2200       C  0.62197683  0.98362322  0.88912400     0.02500
C2201       C  0.59302362  0.96574926  0.91084852    -0.18000
C2202       C  0.58070439  0.98259681  0.93210655     0.02600
C2203       C  0.60027282  0.51940135  0.93373658     0.02500
C2204       C  0.62817611  0.53682792  0.91082577    -0.18000
H2205       H  0.64184457  0.56439362  0.91055089     0.04600
H2206       H  0.57961479  0.93818659  0.91080238     0.04600
C2207       C  0.63541429  0.52516949  0.62062538     0.02600
C2208       C  0.61871042  0.98903217  0.62137776     0.02500
C2209       C  0.59139670  0.97030103  0.59778785    -0.18000
C2210       C  0.57991763  0.98628796  0.57416095     0.02600
C2211       C  0.59642180  0.52307724  0.57513255     0.02500
C2212       C  0.62410053  0.54120219  0.59728240    -0.18000
H2213       H  0.63695501  0.56877389  0.59673620     0.04600
H2214       H  0.57836247  0.94278749  0.59826040     0.04600
C2215       C  0.67063840  0.83715435  0.71545527     0.46400
H2216       H  0.67465660  0.83910820  0.68639992    -0.03300
C2217       C  0.66442672  0.83477346  0.78390214     0.45800
H2218       H  0.66137827  0.83368426  0.81323045    -0.03300
C2219       C  0.64303353  0.80179037  0.72901578    -0.17000
C2220       C  0.70322587  0.84522868  0.73493284    -0.16700
C2221       C  0.66041229  0.86240087  0.72992672    -0.17100
C2222       C  0.63995821  0.80106782  0.76560581    -0.17100
C2223       C  0.70016544  0.84329395  0.77139598    -0.16600
C2224       C  0.65710580  0.86104456  0.76643685    -0.17000
C2225       C  0.62878485  0.97003856  0.64629311    -0.04900
C2226       C  0.63705727  0.98001430  0.68193356    -0.04900
C2227       C  0.64826563  0.96316282  0.70430120    -0.23000
C2228       C  0.64864730  0.93418293  0.69244156     0.19200
C2229       C  0.63770073  0.92227711  0.65774728     0.16400
C2230       C  0.62925011  0.94093724  0.63454218    -0.18100
C2231       C  0.63447623  0.89138608  0.64708763    -0.19900
C2232       C  0.64100804  0.87194845  0.67093442    -0.12500
C2233       C  0.65340034  0.88402799  0.70519876     0.04200
C2234       C  0.65856220  0.91618584  0.71503394    -0.24600
H2235       H  0.63502422  0.00096815  0.69261700     0.09300
H2236       H  0.65539935  0.97203252  0.73127255     0.12900
H2237       H  0.62264285  0.93248159  0.60738431     0.12800
H2238       H  0.62544536  0.88149970  0.62077990     0.12600
H2239       H  0.63561528  0.84706207  0.66239894     0.13100
H2240       H  0.66951533  0.92704878  0.74043715     0.15100
C2241       C  0.63366512  0.96345572  0.86871475    -0.04900
C2242       C  0.66222388  0.96204764  0.87999041    -0.04900
C2243       C  0.67257401  0.94176144  0.86228514    -0.23000
C2244       C  0.65348042  0.92108944  0.83404111     0.19200
C2245       C  0.62350487  0.92075862  0.82380062     0.16400
C2246       C  0.61395720  0.94218060  0.84098367    -0.18100
C2247       C  0.60347687  0.89878023  0.79676117    -0.19900
C2248       C  0.61362971  0.87822394  0.77925488    -0.12500
C2249       C  0.64442186  0.87994526  0.78776406     0.04200
C2250       C  0.66376164  0.90068891  0.81593966    -0.24600
H2251       H  0.67630015  0.47633932  0.90294871     0.09300
H2252       H  0.69514614  0.94177146  0.87110061     0.12900
H2253       H  0.59102609  0.94201802  0.83321973     0.12800
H2254       H  0.58013309  0.89769311  0.78895735     0.12600
H2255       H  0.59800368  0.86174300  0.75815378     0.13100
H2256       H  0.68721716  0.90162259  0.82304346     0.15100
C2257       C  0.83431539  0.87082087  0.86281401    -0.04900
C2258       C  0.84404700  0.89222066  0.83290356    -0.04900
C2259       C  0.81995170  0.89097085  0.80939281    -0.23000
C2260       C  0.78538430  0.86819697  0.81523382     0.19200
C2261       C  0.77503458  0.84564095  0.84449646     0.16400
C2262       C  0.79962487  0.84712686  0.86840438    -0.18100
C2263       C  0.74024098  0.82272236  0.84959313    -0.19900
C2264       C  0.71626433  0.82215041  0.82586062    -0.12500
C2265       C  0.72631335  0.84478168  0.79678903     0.04200
C2266       C  0.76112420  0.86822995  0.79237686    -0.24600
H2267       H  0.87056275  0.91070118  0.82826890     0.09300
H2268       H  0.82834267  0.90820963  0.78692726     0.12900
H2269       H  0.79187023  0.83079632  0.89159384     0.12800
H2270       H  0.73158316  0.80514900  0.87175579     0.12600
H2271       H  0.68973531  0.80358867  0.83012645     0.13100
H2272       H  0.76963153  0.88730211  0.77208806     0.15100
C2273       C  0.61556200  0.77192213  0.78739395    -0.04900
C2274       C  0.59245308  0.77543511  0.80915130    -0.04900
C2275       C  0.56930631  0.74840547  0.83032830    -0.23000
C2276       C  0.56914854  0.71754646  0.83022422     0.19200
C2277       C  0.59233689  0.71381490  0.80819029     0.16400
C2278       C  0.61559839  0.74115190  0.78707603    -0.18100
C2279       C  0.59206604  0.68291764  0.80793892    -0.19900
C2280       C  0.56935771  0.65610726  0.82962252    -0.12500
C2281       C  0.54649022  0.65968741  0.85185435     0.04200
C2282       C  0.54654554  0.69053490  0.85211596    -0.24600
H2283       H  0.59223919  0.79913245  0.80952472     0.09300
H2284       H  0.55166357  0.75168799  0.84689855     0.12900
H2285       H  0.63365334  0.73861347  0.77039186     0.12800
H2286       H  0.60955238  0.67956597  0.79118025     0.12600
H2287       H  0.56966155  0.63245656  0.82921934     0.13100
H2288       H  0.52919498  0.69348395  0.86954301     0.15100
C2289       C  0.73437899  0.85514982  0.71407750    -0.04900
C2290       C  0.75712614  0.88972871  0.70764413    -0.04900
C2291       C  0.78582681  0.89988461  0.68640307    -0.23000
C2292       C  0.79093871  0.87552815  0.66919754     0.19200
C2293       C  0.76664481  0.84065566  0.67317472     0.16400
C2294       C  0.73872744  0.83058445  0.69615404    -0.18100
C2295       C  0.77018920  0.81670266  0.65315981    -0.19900
C2296       C  0.79778735  0.82719205  0.62996401    -0.12500
C2297       C  0.82372828  0.86148538  0.62803968     0.04200
C2298       C  0.81961195  0.88556697  0.64753625    -0.24600
H2299       H  0.75290575  0.90890204  0.71974479     0.09300
H2300       H  0.80361208  0.92676480  0.68281058     0.12900
H2301       H  0.71999690  0.80389535  0.69942510     0.12800
H2302       H  0.75115337  0.78998447  0.65469451     0.12600
H2303       H  0.79813190  0.80838081  0.61300142     0.13100
H2304       H  0.83879236  0.91224697  0.64587590     0.15100
C2305       C  0.62225362  0.77285383  0.70386677    -0.04900
C2306       C  0.63602078  0.77137224  0.67072420    -0.04900
C2307       C  0.61710716  0.74535794  0.64652075    -0.23000
C2308       C  0.58471212  0.71872600  0.65569669     0.19200
C2309       C  0.57116931  0.71885085  0.68933549     0.16400
C2310       C  0.58886191  0.74681501  0.71201695    -0.18100
C2311       C  0.54069751  0.69042469  0.70029072    -0.19900
C2312       C  0.52385755  0.66224670  0.67807566    -0.12500
C2313       C  0.53487149  0.66299184  0.64282748     0.04200
C2314       C  0.56588672  0.69171672  0.63212162    -0.24600
H2315       H  0.66169489  0.79005455  0.66328665     0.09300
H2316       H  0.62837191  0.74543450  0.62110405     0.12900
H2317       H  0.57624772  0.74779050  0.73590058     0.12800
H2318       H  0.53066071  0.68932905  0.72670678     0.12600
H2319       H  0.50230297  0.63981378  0.68902257     0.13100
H2320       H  0.57566281  0.69319561  0.60553226     0.15100
C2321       C  0.86453129  0.82471092  0.62610541    -0.04900
C2322       C  0.84421612  0.79328380  0.60947534    -0.04900
C2323       C  0.83547774  0.76285075  0.62706976    -0.23000
C2324       C  0.84896959  0.76341663  0.66055589     0.19200
C2325       C  0.87203145  0.79505167  0.67597310     0.16400
C2326       C  0.87914600  0.82547544  0.65898771    -0.18100
C2327       C  0.88787595  0.79567590  0.70788553    -0.19900
C2328       C  0.87984064  0.76535140  0.72513439    -0.12500
C2329       C  0.85437708  0.73388579  0.71195009     0.04200
C2330       C  0.83989726  0.73301873  0.67888756    -0.24600
H2331       H  0.83451807  0.79237941  0.58308485     0.09300
H2332       H  0.81858343  0.73891296  0.61427881     0.12900
H2333       H  0.89651246  0.84976556  0.67091297     0.12800
H2334       H  0.90640794  0.81960738  0.71957273     0.12600
H2335       H  0.89259080  0.76656551  0.74970528     0.13100
H2336       H  0.82093395  0.70887914  0.66793518     0.15100
C2337       C  0.83683608  0.72682157  0.79155795    -0.04900
C2338       C  0.82231089  0.74532162  0.77764635    -0.04900
C2339       C  0.82669539  0.77442358  0.79464830    -0.23000
C2340       C  0.84293492  0.78375802  0.82747455     0.19200
C2341       C  0.85255963  0.76218293  0.84431764     0.16400
C2342       C  0.85039978  0.73437616  0.82589443    -0.18100
C2343       C  0.86504567  0.76943285  0.87885589    -0.19900
C2344       C  0.86965870  0.79872753  0.89569375    -0.12500
C2345       C  0.86453435  0.82299156  0.87747619     0.04200
C2346       C  0.85046480  0.81465058  0.84326423    -0.24600
H2347       H  0.80923012  0.73844420  0.75251651     0.09300
H2348       H  0.81761550  0.78974520  0.78199345     0.12900
H2349       H  0.86061617  0.71971446  0.83773052     0.12800
H2350       H  0.87137500  0.75253238  0.89285057     0.12600
H2351       H  0.87857302  0.80292549  0.92276990     0.13100
H2352       H  0.84686159  0.83245203  0.82766548     0.15100
C2353       C  0.96908197  0.62661351  0.85198909    -0.04900
C2354       C  0.97923002  0.63608219  0.81636363    -0.04900
C2355       C  0.96303375  0.64876033  0.79501041    -0.23000
C2356       C  0.93423217  0.64912901  0.80759014     0.19200
C2357       C  0.92190276  0.63669604  0.84196023     0.16400
C2358       C  0.94010175  0.62706323  0.86435943    -0.18100
C2359       C  0.89123080  0.63355267  0.85320631    -0.19900
C2360       C  0.87232392  0.64151090  0.83023108    -0.12500
C2361       C  0.88451930  0.65504234  0.79601252     0.04200
C2362       C  0.91683518  0.66050888  0.78600846    -0.24600
H2363       H  0.49977208  0.63387167  0.80482550     0.09300
H2364       H  0.97220430  0.65695102  0.76813193     0.12900
H2365       H  0.93141663  0.61974509  0.89149742     0.12800
H2366       H  0.88104308  0.62351097  0.87937756     0.12600
H2367       H  0.84785234  0.63624751  0.83972158     0.13100
H2368       H  0.92879092  0.67329966  0.76148334     0.15100
C2369       C  0.88863382  0.65983501  0.71166183    -0.04900
C2370       C  0.90947172  0.68626135  0.68817324    -0.04900
C2371       C  0.93176862  0.68293038  0.66521740    -0.23000
C2372       C  0.93341253  0.65300125  0.66533668     0.19200
C2373       C  0.91226640  0.62619305  0.68887323     0.16400
C2374       C  0.88967822  0.62960721  0.71152481    -0.18100
C2375       C  0.91389199  0.59631261  0.68919696    -0.19900
C2376       C  0.93592308  0.59276525  0.66619755    -0.12500
C2377       C  0.95683692  0.61907447  0.64258207     0.04200
C2378       C  0.95552330  0.64921376  0.64217211    -0.24600
H2379       H  0.90846292  0.70954571  0.68770640     0.09300
H2380       H  0.94763580  0.70369076  0.64734677     0.12900
H2381       H  0.87307800  0.60897891  0.72922666     0.12800
H2382       H  0.89801824  0.57561204  0.70713988     0.12600
H2383       H  0.93676997  0.56940520  0.66678521     0.13100
H2384       H  0.97152249  0.66943588  0.62378677     0.15100
C2385       C  0.66478737  0.54059720  0.86040365    -0.04900
C2386       C  0.65855844  0.56141691  0.83768602    -0.04900
C2387       C  0.68368235  0.58443566  0.81451006    -0.23000
C2388       C  0.71545156  0.58671038  0.81304343     0.19200
C2389       C  0.72176837  0.56525820  0.83496536     0.16400
C2390       C  0.69673041  0.54300574  0.85908535    -0.18100
C2391       C  0.75333599  0.56704464  0.83290825    -0.19900
C2392       C  0.77847961  0.59011121  0.80974935    -0.12500
C2393       C  0.77284029  0.61231165  0.78884192     0.04200
C2394       C  0.74127710  0.61060584  0.79072186    -0.24600
H2395       H  0.63431611  0.56039282  0.83856925     0.09300
H2396       H  0.67830615  0.60061658  0.79788287     0.12900
H2397       H  0.70280066  0.52882038  0.87771951     0.12800
H2398       H  0.75861871  0.55064024  0.84926765     0.12600
H2399       H  0.80256282  0.59090109  0.80838498     0.13100
H2400       H  0.73713960  0.62852997  0.77580153     0.15100
C2401       C  0.66428134  0.54802027  0.64386700    -0.04900
C2402       C  0.66251138  0.57380698  0.66264851    -0.04900
C2403       C  0.68999130  0.59769412  0.68215173    -0.23000
C2404       C  0.71958937  0.59580931  0.68413011     0.19200
C2405       C  0.72155814  0.56944608  0.66640323     0.16400
C2406       C  0.69405718  0.54601168  0.64577679    -0.18100
C2407       C  0.75108999  0.56725153  0.66959777    -0.19900
C2408       C  0.77804330  0.59064660  0.69053471    -0.12500
C2409       C  0.77590843  0.61667311  0.70805633     0.04200
C2410       C  0.74711586  0.61972960  0.70392429    -0.24600
H2411       H  0.63978675  0.57571812  0.66179013     0.09300
H2412       H  0.68799162  0.61753955  0.69588918     0.12900
H2413       H  0.69580568  0.52643754  0.63116529     0.12800
H2414       H  0.75313876  0.54724450  0.65632777     0.12600
H2415       H  0.80040074  0.58828420  0.69339274     0.13100
H2416       H  0.74605777  0.64059642  0.71648220     0.15100
loop_ 
_geom_bond_atom_site_label_1 
_geom_bond_atom_site_label_2 
_geom_bond_distance 
_geom_bond_site_symmetry_2 
_ccdc_geom_bond_type 
C1            H2   1.104       .  S
C1            C7   1.555       .  S
C1            C6   1.540       .  S
C1            C5   1.528       .  S
C3            H4   1.111       .  S
C3            C9   1.532       .  S
C3            C8   1.538       .  S
C3           C10   1.532       .  S
C5            C8   1.370       .  D
C5          C279   1.484       .  S
C6            C9   1.378       .  D
C6          C223   1.493       .  S
C7           C10   1.388       .  D
C7          C247   1.514       .  S
C8          C295   1.474       .  S
C9          C215   1.493       .  S
C10         C255   1.476       .  S
O11         Cu19   2.058       .  S
O11          C21   1.284       .  A
O12        Cu321   2.059       .  S
O12          C22   1.284       .  A
O13         Cu19   2.097       .  S
O13          C23   1.287       .  A
O14        Cu321   2.101       .  S
O14          C24   1.288       .  A
O15        Cu322   1.915       .  S
O15          C24   1.250       .  A
O16         Cu20   1.921       .  S
O16          C23   1.248       .  A
O17        Cu322   1.988       .  S
O17          C22   1.265       .  A
O18         Cu20   1.993       .  S
O18          C21   1.268       .  A
Cu19        O314   2.059       .  S
Cu19        O316   2.101       .  S
Cu19        Cu20   2.230       .  S
Cu20        O317   1.915       .  S
Cu20        O319   1.988       .  S
C21          C72   1.498       .  S
C22          C97   1.496       .  S
C23          C89   1.502       .  S
C24          C56   1.502       .  S
O25         Cu33   2.067       .  S
O25          C35   1.284       .  A
O26        Cu939   2.074   1_554  S
O26          C36   1.285       .  A
O27        Cu637   2.121       .  S
O27          C37   1.290       .  A
O28        Cu335   2.119   1_554  S
O28          C38   1.289       .  A
O29        Cu940   1.923   1_554  S
O29          C38   1.248       .  A
O30         Cu34   1.914   1_545  S
O30          C37   1.249       .  A
O31        Cu336   2.005   1_544  S
O31          C36   1.270       .  A
O32        Cu638   1.999       .  S
O32          C35   1.266       .  A
Cu33        O932   2.074       .  S
Cu33        O631   2.121       .  S
Cu33        O330   2.119       .  S
Cu33       Cu638   2.241       .  S
Cu34        O935   1.923       .  S
Cu34        O333   2.005   1_565  S
Cu34        O636   1.999       .  S
Cu34       Cu637   2.241   1_565  S
C35          C81   1.504       .  S
C36          C57   1.511       .  S
C37          C73   1.512       .  S
C38          C64   1.512       .  S
O39         Cu47   2.058       .  S
O39          C49   1.283       .  A
O40       Cu1557   2.072       .  S
O40          C50   1.283       .  A
O41       Cu1255   2.125       .  S
O41          C51   1.290       .  A
O42        Cu349   2.121       .  S
O42          C52   1.292       .  A
O43       Cu1256   1.917       .  S
O43          C52   1.248       .  A
O44        Cu350   1.921       .  S
O44          C51   1.250       .  A
O45         Cu48   2.012       .  S
O45          C50   1.271       .  A
O46       Cu1558   2.009       .  S
O46          C49   1.270       .  A
Cu47       O1550   2.072   1_554  S
Cu47       O1249   2.125       .  S
Cu47        O344   2.121   1_554  S
Cu47      Cu1558   2.261       .  S
Cu48       O1251   1.917   1_455  S
Cu48        O346   1.921       .  S
Cu48       O1556   2.009   1_455  S
Cu48      Cu1557   2.261       .  S
C49          C65   1.510       .  S
C50          C88   1.513       .  S
C51          C96   1.518       .  S
C52          C80   1.517       .  S
C53         C263   1.478       .  S
C53          C58   1.403       .  A
C53        C1262   1.427       .  A
C54         C199   1.515       .  S
C54          C55   1.415       .  A
C54        C1261   1.427   1_455  A
C55          C56   1.409       .  A
C55          H60   1.082       .  S
C56        C1265   1.449   1_455  A
C57          C58   1.393       .  A
C57        C1264   1.449       .  A
C58          H59   1.086       .  S
C61         C207   1.483       .  S
C61          C62   1.422       .  A
C61          C66   1.398       .  A
C62         C183   1.501       .  S
C62          C63   1.416       .  A
C63          C64   1.409       .  A
C63          H68   1.084       .  S
C64          C65   1.454       .  A
C65          C66   1.400       .  A
C66          H67   1.085       .  S
C69         C239   1.504       .  S
C69          C74   1.418       .  A
C69        C1278   1.424       .  A
C70         C167   1.482       .  S
C70          C71   1.398       .  A
C70        C1277   1.424   1_455  A
C71          C72   1.393       .  A
C71          H76   1.086       .  S
C72        C1281   1.449   1_455  A
C73          C74   1.407       .  A
C73        C1280   1.449       .  A
C74          H75   1.082       .  S
C77         C143   1.490       .  S
C77          C78   1.428       .  A
C77          C82   1.404       .  A
C78         C231   1.505       .  S
C78          C79   1.418       .  A
C79          C80   1.401       .  A
C79          H84   1.082       .  S
C80          C81   1.451       .  A
C81          C82   1.400       .  A
C82          H83   1.086       .  S
C85         C271   1.491       .  S
C85          C90   1.406       .  A
C85         C690   1.420   1_545  A
C86         C127   1.486       .  S
C86          C87   1.408       .  A
C86         C689   1.420       .  A
C87          C88   1.405       .  A
C87          H92   1.085       .  S
C88         C693   1.451       .  A
C89          C90   1.402       .  A
C89         C692   1.451   1_545  A
C90          H91   1.084       .  S
C93         C287   1.490       .  S
C93          C98   1.398       .  A
C93         C698   1.423   1_545  A
C94         C111   1.497       .  S
C94          C95   1.420       .  A
C94         C697   1.423       .  A
C95          C96   1.408       .  A
C95         H100   1.083       .  S
C96         C701   1.451       .  A
C97          C98   1.392       .  A
C97         C700   1.451   1_545  A
C98          H99   1.086       .  S
C101        H102   1.105       .  S
C101        C107   1.540       .  S
C101        C106   1.532       .  S
C101        C105   1.546       .  S
C103        H104   1.111       .  S
C103        C109   1.544       .  S
C103        C108   1.538       .  S
C103        C110   1.541       .  S
C105        C108   1.384       .  D
C105        C191   1.513       .  S
C106        C109   1.379       .  D
C106        C175   1.477       .  S
C107        C110   1.381       .  D
C107        C119   1.502       .  S
C108        C159   1.475       .  S
C109        C151   1.508       .  S
C110        C135   1.489       .  S
C111        C112   1.410       .  A
C111        C116   1.407       .  A
C112        C113   1.399       .  A
C112        H121   1.081       .  S
C113        C114   1.401       .  A
C113        H122   1.084       .  S
C114        C120   1.405       .  A
C114        C115   1.411       .  A
C115        C117   1.398       .  A
C115        C116   1.402       .  A
C116        H123   1.084       .  S
C117        C118   1.394       .  A
C117        H124   1.084       .  S
C118        C119   1.410       .  A
C118        H125   1.081       .  S
C119        C120   1.411       .  A
C120        H126   1.081       .  S
C127        C128   1.404       .  A
C127        C132   1.406       .  A
C128        C129   1.399       .  A
C128        H741   1.083       .  S
C129        C130   1.402       .  A
C129        H138   1.083       .  S
C130        C136   1.408       .  A
C130        C131   1.415       .  A
C131        C133   1.403       .  A
C131        C132   1.409       .  A
C132        H139   1.084       .  S
C133        C134   1.399       .  A
C133        H140   1.083       .  S
C134        C135   1.405       .  A
C134        H141   1.083       .  S
C135        C136   1.405       .  A
C136        H142   1.084       .  S
H137        C732   1.083       .  S
C143        C144   1.405       .  A
C143        C148   1.411       .  A
C144        C145   1.394       .  A
C144        H153   1.084       .  S
C145        C146   1.400       .  A
C145        H154   1.082       .  S
C146        C152   1.407       .  A
C146        C147   1.413       .  A
C147        C149   1.405       .  A
C147        C148   1.417       .  A
C148        H155   1.082       .  S
C149        C150   1.407       .  A
C149        H156   1.082       .  S
C150        C151   1.410       .  A
C150        H157   1.083       .  S
C151        C152   1.407       .  A
C152        H158   1.070       .  S
C159        C160   1.403       .  A
C159        C164   1.401       .  A
C160        C161   1.395       .  A
C160        H169   1.083       .  S
C161        C162   1.401       .  A
C161        H170   1.084       .  S
C162        C168   1.403       .  A
C162        C163   1.417       .  A
C163        C165   1.400       .  A
C163        C164   1.403       .  A
C164        H171   1.085       .  S
C165        C166   1.395       .  A
C165        H172   1.084       .  S
C166        C167   1.406       .  A
C166        H173   1.083       .  S
C167        C168   1.402       .  A
C168        H174   1.085       .  S
C175        C176   1.402       .  A
C175        C180   1.403       .  A
C176        C177   1.395       .  A
C176        H185   1.084       .  S
C177        C178   1.401       .  A
C177        H186   1.083       .  S
C178        C184   1.404       .  A
C178        C179   1.414       .  A
C179        C181   1.400       .  A
C179        C180   1.407       .  A
C180        H187   1.084       .  S
C181        C182   1.399       .  A
C181        H188   1.083       .  S
C182        C183   1.408       .  A
C182        H189   1.076       .  S
C183        C184   1.408       .  A
C184        H190   1.084       .  S
C191        C192   1.412       .  A
C191        C196   1.413       .  A
C192        C193   1.401       .  A
C192        H201   1.080       .  S
C193        C194   1.402       .  A
C193        H202   1.084       .  S
C194        C200   1.410       .  A
C194        C195   1.408       .  A
C195        C197   1.400       .  A
C195        C196   1.407       .  A
C196        H203   1.078       .  S
C197        C198   1.398       .  A
C197        H204   1.084       .  S
C198        C199   1.412       .  A
C198        H205   1.079       .  S
C199        C200   1.416       .  A
C200        H206   1.083       .  S
C207        C208   1.405       .  A
C207        C212   1.403       .  A
C208        C209   1.399       .  A
C208        H217   1.083       .  S
C209        C210   1.402       .  A
C209        H218   1.084       .  S
C210        C216   1.407       .  A
C210        C211   1.416       .  A
C211        C213   1.400       .  A
C211        C212   1.405       .  A
C212        H219   1.085       .  S
C213        C214   1.395       .  A
C213        H220   1.084       .  S
C214        C215   1.408       .  A
C214        H221   1.083       .  S
C215        C216   1.405       .  A
C216        H222   1.084       .  S
C223        C224   1.409       .  A
C223        C228   1.404       .  A
C224        C225   1.394       .  A
C224        H233   1.082       .  S
C225        C226   1.398       .  A
C225        H234   1.085       .  S
C226        C232   1.403       .  A
C226        C227   1.412       .  A
C227        C229   1.396       .  A
C227        C228   1.404       .  A
C228        H235   1.084       .  S
C229        C230   1.395       .  A
C229        H236   1.085       .  S
C230        C231   1.416       .  A
C230        H237   1.082       .  S
C231        C232   1.409       .  A
C232        H238   1.078       .  S
C239        C240   1.412       .  A
C239        C244   1.409       .  A
C240        C241   1.400       .  A
C240       H1457   1.080       .  S
C241        C242   1.402       .  A
C241        H250   1.085       .  S
C242        C248   1.406       .  A
C242        C243   1.409       .  A
C243        C245   1.396       .  A
C243        C244   1.402       .  A
C244        H251   1.084       .  S
C245        C246   1.395       .  A
C245        H252   1.085       .  S
C246        C247   1.413       .  A
C246        H253   1.076       .  S
C247        C248   1.414       .  A
C248        H254   1.079       .  S
H249       C1448   1.080       .  S
C255        C256   1.404       .  A
C255        C260   1.400       .  A
C256        C257   1.397       .  A
C256        H265   1.083       .  S
C257        C258   1.401       .  A
C257        H266   1.084       .  S
C258        C264   1.405       .  A
C258        C259   1.418       .  A
C259        C261   1.398       .  A
C259        C260   1.402       .  A
C260        H267   1.085       .  S
C261        C262   1.393       .  A
C261        H268   1.084       .  S
C262        C263   1.405       .  A
C262        H269   1.083       .  S
C263        C264   1.403       .  A
C264        H270   1.085       .  S
C271        C272   1.408       .  A
C271        C276   1.405       .  A
C272        C273   1.397       .  A
C272        H281   1.083       .  S
C273        C274   1.400       .  A
C273        H282   1.085       .  S
C274        C280   1.406       .  A
C274        C275   1.415       .  A
C275        C277   1.402       .  A
C275        C276   1.407       .  A
C276        H283   1.080       .  S
C277        C278   1.398       .  A
C277        H284   1.085       .  S
C278        C279   1.403       .  A
C278        H285   1.081       .  S
C279        C280   1.403       .  A
C280        H286   1.082       .  S
C287        C288   1.408       .  A
C287        C292   1.408       .  A
C288        C289   1.391       .  A
C288        H297   1.083       .  S
C289        C290   1.397       .  A
C289        H298   1.084       .  S
C290        C296   1.399       .  A
C290        C291   1.415       .  A
C291        C293   1.405       .  A
C291        C292   1.408       .  A
C292        H299   1.084       .  S
C293        C294   1.402       .  A
C293        H300   1.083       .  S
C294        C295   1.402       .  A
C294        H301   1.083       .  S
C295        C296   1.398       .  A
C296        H302   1.084       .  S
C303        H304   1.104       .  S
C303        C309   1.555       .  S
C303        C308   1.540       .  S
C303        C307   1.528       .  S
C305        H306   1.111       .  S
C305        C311   1.532       .  S
C305        C310   1.538       .  S
C305        C312   1.532       .  S
C307        C310   1.370       .  D
C307        C581   1.484       .  S
C308        C311   1.378       .  D
C308        C525   1.493       .  S
C309        C312   1.388       .  D
C309        C549   1.514       .  S
C310        C597   1.474       .  S
C311        C517   1.493       .  S
C312        C557   1.476       .  S
O313       Cu321   2.058   1_556  S
O313        C323   1.284       .  A
O314        C324   1.284       .  A
O315       Cu321   2.097   1_556  S
O315        C325   1.287       .  A
O316        C326   1.288       .  A
O317        C326   1.250       .  A
O318       Cu322   1.921   1_556  S
O318        C325   1.248       .  A
O319        C324   1.265       .  A
O320       Cu322   1.993   1_556  S
O320        C323   1.268       .  A
Cu321      Cu322   2.230       .  S
C323        C374   1.498       .  S
C324        C399   1.496       .  S
C325        C391   1.502       .  S
C326        C358   1.502       .  S
O327       Cu335   2.067       .  S
O327        C337   1.284       .  A
O328       Cu637   2.074       .  S
O328        C338   1.285       .  A
O329       Cu939   2.121       .  S
O329        C339   1.290       .  A
O330        C340   1.289       .  A
O331       Cu638   1.923       .  S
O331        C340   1.248       .  A
O332       Cu336   1.914   1_545  S
O332        C339   1.249       .  A
O333        C338   1.270       .  A
O334       Cu940   1.999       .  S
O334        C337   1.266       .  A
Cu335       O630   2.074   1_556  S
Cu335       O933   2.121       .  S
Cu335      Cu940   2.241       .  S
Cu336       O633   1.923   1_556  S
Cu336       O938   1.999       .  S
Cu336      Cu939   2.241   1_565  S
C337        C383   1.504       .  S
C338        C359   1.511       .  S
C339        C375   1.512       .  S
C340        C366   1.512       .  S
O341       Cu349   2.058       .  S
O341        C351   1.283       .  A
O342      Cu1255   2.072   1_556  S
O342        C352   1.283       .  A
O343      Cu1557   2.125       .  S
O343        C353   1.290       .  A
O344        C354   1.292       .  A
O345      Cu1558   1.917   1_556  S
O345        C354   1.248       .  A
O346        C353   1.250       .  A
O347       Cu350   2.012   1_556  S
O347        C352   1.271       .  A
O348      Cu1256   2.009       .  S
O348        C351   1.270       .  A
Cu349      O1248   2.072       .  S
Cu349      O1551   2.125       .  S
Cu349     Cu1256   2.261       .  S
Cu350      O1553   1.917   1_454  S
Cu350      O1254   2.009   1_455  S
Cu350     Cu1255   2.261       .  S
C351        C367   1.510       .  S
C352        C390   1.513       .  S
C353        C398   1.518       .  S
C354        C382   1.517       .  S
C355        C565   1.478       .  S
C355       C1564   1.427       .  A
C355        C360   1.403       .  A
C356        C501   1.515       .  S
C356       C1563   1.427   1_455  A
C356        C357   1.415       .  A
C357        C358   1.409       .  A
C357        H362   1.082       .  S
C358       C1567   1.449   1_455  A
C359       C1566   1.449       .  A
C359        C360   1.393       .  A
C360        H361   1.086       .  S
C363        C509   1.483       .  S
C363        C364   1.422       .  A
C363        C368   1.398       .  A
C364        C485   1.501       .  S
C364        C365   1.416       .  A
C365        C366   1.409       .  A
C365        H370   1.084       .  S
C366        C367   1.454       .  A
C367        C368   1.400       .  A
C368        H369   1.085       .  S
C371        C541   1.504       .  S
C371       C1580   1.424       .  A
C371        C376   1.418       .  A
C372        C469   1.482       .  S
C372       C1579   1.424   1_455  A
C372        C373   1.398       .  A
C373        C374   1.393       .  A
C373        H378   1.086       .  S
C374       C1583   1.449   1_455  A
C375       C1582   1.449       .  A
C375        C376   1.407       .  A
C376        H377   1.082       .  S
C379        C445   1.490       .  S
C379        C380   1.428       .  A
C379        C384   1.404       .  A
C380        C533   1.505       .  S
C380        C381   1.418       .  A
C381        C382   1.401       .  A
C381        H386   1.082       .  S
C382        C383   1.451       .  A
C383        C384   1.400       .  A
C384        H385   1.086       .  S
C387        C573   1.491       .  S
C387        C992   1.420   1_545  A
C387        C392   1.406       .  A
C388        C429   1.486       .  S
C388        C991   1.420       .  A
C388        C389   1.408       .  A
C389        C390   1.405       .  A
C389        H394   1.085       .  S
C390        C995   1.451       .  A
C391        C994   1.451   1_545  A
C391        C392   1.402       .  A
C392        H393   1.084       .  S
C395        C589   1.490       .  S
C395       C1000   1.423   1_545  A
C395        C400   1.398       .  A
C396        C413   1.497       .  S
C396        C999   1.423       .  A
C396        C397   1.420       .  A
C397        C398   1.408       .  A
C397        H402   1.083       .  S
C398       C1003   1.451       .  A
C399       C1002   1.451   1_545  A
C399        C400   1.392       .  A
C400        H401   1.086       .  S
C403        H404   1.105       .  S
C403        C409   1.540       .  S
C403        C408   1.532       .  S
C403        C407   1.546       .  S
C405        H406   1.111       .  S
C405        C411   1.544       .  S
C405        C410   1.538       .  S
C405        C412   1.541       .  S
C407        C410   1.384       .  D
C407        C493   1.513       .  S
C408        C411   1.379       .  D
C408        C477   1.477       .  S
C409        C412   1.381       .  D
C409        C421   1.502       .  S
C410        C461   1.475       .  S
C411        C453   1.508       .  S
C412        C437   1.489       .  S
C413        C414   1.410       .  A
C413        C418   1.407       .  A
C414        C415   1.399       .  A
C414        H423   1.081       .  S
C415        C416   1.401       .  A
C415        H424   1.084       .  S
C416        C422   1.405       .  A
C416        C417   1.411       .  A
C417        C419   1.398       .  A
C417        C418   1.402       .  A
C418        H425   1.084       .  S
C419        C420   1.394       .  A
C419        H426   1.084       .  S
C420        C421   1.410       .  A
C420        H427   1.081       .  S
C421        C422   1.411       .  A
C422        H428   1.081       .  S
C429        C430   1.404       .  A
C429        C434   1.406       .  A
C430        C431   1.399       .  A
C430       H1043   1.083       .  S
C431        C432   1.402       .  A
C431        H440   1.083       .  S
C432        C438   1.408       .  A
C432        C433   1.415       .  A
C433        C435   1.403       .  A
C433        C434   1.409       .  A
C434        H441   1.084       .  S
C435        C436   1.399       .  A
C435        H442   1.083       .  S
C436        C437   1.405       .  A
C436        H443   1.083       .  S
C437        C438   1.405       .  A
C438        H444   1.084       .  S
H439       C1034   1.083       .  S
C445        C446   1.405       .  A
C445        C450   1.411       .  A
C446        C447   1.394       .  A
C446        H455   1.084       .  S
C447        C448   1.400       .  A
C447        H456   1.082       .  S
C448        C454   1.407       .  A
C448        C449   1.413       .  A
C449        C451   1.405       .  A
C449        C450   1.417       .  A
C450        H457   1.082       .  S
C451        C452   1.407       .  A
C451        H458   1.082       .  S
C452        C453   1.410       .  A
C452        H459   1.083       .  S
C453        C454   1.407       .  A
C454        H460   1.070       .  S
C461        C462   1.403       .  A
C461        C466   1.401       .  A
C462        C463   1.395       .  A
C462        H471   1.083       .  S
C463        C464   1.401       .  A
C463        H472   1.084       .  S
C464        C470   1.403       .  A
C464        C465   1.417       .  A
C465        C467   1.400       .  A
C465        C466   1.403       .  A
C466        H473   1.085       .  S
C467        C468   1.395       .  A
C467        H474   1.084       .  S
C468        C469   1.406       .  A
C468        H475   1.083       .  S
C469        C470   1.402       .  A
C470        H476   1.085       .  S
C477        C478   1.402       .  A
C477        C482   1.403       .  A
C478        C479   1.395       .  A
C478        H487   1.084       .  S
C479        C480   1.401       .  A
C479        H488   1.083       .  S
C480        C486   1.404       .  A
C480        C481   1.414       .  A
C481        C483   1.400       .  A
C481        C482   1.407       .  A
C482        H489   1.084       .  S
C483        C484   1.399       .  A
C483        H490   1.083       .  S
C484        C485   1.408       .  A
C484        H491   1.075       .  S
C485        C486   1.408       .  A
C486        H492   1.084       .  S
C493        C494   1.412       .  A
C493        C498   1.413       .  A
C494        C495   1.401       .  A
C494        H503   1.080       .  S
C495        C496   1.402       .  A
C495        H504   1.084       .  S
C496        C502   1.410       .  A
C496        C497   1.408       .  A
C497        C499   1.400       .  A
C497        C498   1.407       .  A
C498        H505   1.078       .  S
C499        C500   1.398       .  A
C499        H506   1.084       .  S
C500        C501   1.412       .  A
C500        H507   1.079       .  S
C501        C502   1.416       .  A
C502        H508   1.083       .  S
C509        C510   1.405       .  A
C509        C514   1.403       .  A
C510        C511   1.399       .  A
C510        H519   1.083       .  S
C511        C512   1.402       .  A
C511        H520   1.084       .  S
C512        C518   1.407       .  A
C512        C513   1.416       .  A
C513        C515   1.400       .  A
C513        C514   1.405       .  A
C514        H521   1.085       .  S
C515        C516   1.395       .  A
C515        H522   1.084       .  S
C516        C517   1.408       .  A
C516        H523   1.083       .  S
C517        C518   1.405       .  A
C518        H524   1.084       .  S
C525        C526   1.409       .  A
C525        C530   1.404       .  A
C526        C527   1.394       .  A
C526        H535   1.082       .  S
C527        C528   1.398       .  A
C527        H536   1.085       .  S
C528        C534   1.403       .  A
C528        C529   1.412       .  A
C529        C531   1.396       .  A
C529        C530   1.404       .  A
C530        H537   1.084       .  S
C531        C532   1.395       .  A
C531        H538   1.085       .  S
C532        C533   1.416       .  A
C532        H539   1.082       .  S
C533        C534   1.409       .  A
C534        H540   1.078       .  S
C541        C542   1.412       .  A
C541        C546   1.409       .  A
C542        C543   1.400       .  A
C542       H1759   1.080       .  S
C543        C544   1.402       .  A
C543        H552   1.085       .  S
C544        C550   1.406       .  A
C544        C545   1.409       .  A
C545        C547   1.396       .  A
C545        C546   1.402       .  A
C546        H553   1.084       .  S
C547        C548   1.395       .  A
C547        H554   1.085       .  S
C548        C549   1.413       .  A
C548        H555   1.076       .  S
C549        C550   1.414       .  A
C550        H556   1.079       .  S
H551       C1750   1.080       .  S
C557        C558   1.404       .  A
C557        C562   1.400       .  A
C558        C559   1.397       .  A
C558        H567   1.083       .  S
C559        C560   1.401       .  A
C559        H568   1.084       .  S
C560        C566   1.405       .  A
C560        C561   1.418       .  A
C561        C563   1.398       .  A
C561        C562   1.402       .  A
C562        H569   1.085       .  S
C563        C564   1.393       .  A
C563        H570   1.084       .  S
C564        C565   1.405       .  A
C564        H571   1.083       .  S
C565        C566   1.403       .  A
C566        H572   1.085       .  S
C573        C574   1.408       .  A
C573        C578   1.405       .  A
C574        C575   1.397       .  A
C574        H583   1.083       .  S
C575        C576   1.400       .  A
C575        H584   1.085       .  S
C576        C582   1.406       .  A
C576        C577   1.415       .  A
C577        C579   1.402       .  A
C577        C578   1.407       .  A
C578        H585   1.080       .  S
C579        C580   1.398       .  A
C579        H586   1.085       .  S
C580        C581   1.403       .  A
C580        H587   1.081       .  S
C581        C582   1.403       .  A
C582        H588   1.082       .  S
C589        C590   1.408       .  A
C589        C594   1.408       .  A
C590        C591   1.391       .  A
C590        H599   1.083       .  S
C591        C592   1.397       .  A
C591        H600   1.084       .  S
C592        C598   1.399       .  A
C592        C593   1.415       .  A
C593        C595   1.405       .  A
C593        C594   1.408       .  A
C594        H601   1.084       .  S
C595        C596   1.402       .  A
C595        H602   1.083       .  S
C596        C597   1.402       .  A
C596        H603   1.083       .  S
C597        C598   1.398       .  A
C598        H604   1.084       .  S
C605        H606   1.104       .  S
C605        C611   1.555       .  S
C605        C610   1.540       .  S
C605        C609   1.528       .  S
C607        H608   1.111       .  S
C607        C613   1.532       .  S
C607        C612   1.538       .  S
C607        C614   1.532       .  S
C609        C612   1.370       .  D
C609        C883   1.484       .  S
C610        C613   1.378       .  D
C610        C827   1.493       .  S
C611        C614   1.388       .  D
C611        C851   1.514       .  S
C612        C899   1.474       .  S
C613        C819   1.493       .  S
C614        C859   1.476       .  S
O615       Cu623   2.058       .  S
O615        C625   1.284       .  A
O616       Cu925   2.059       .  S
O616        C626   1.284       .  A
O617       Cu623   2.097       .  S
O617        C627   1.287       .  A
O618       Cu925   2.101       .  S
O618        C628   1.288       .  A
O619       Cu926   1.915       .  S
O619        C628   1.250       .  A
O620       Cu624   1.921       .  S
O620        C627   1.248       .  A
O621       Cu926   1.988       .  S
O621        C626   1.265       .  A
O622       Cu624   1.993       .  S
O622        C625   1.268       .  A
Cu623       O918   2.059       .  S
Cu623       O920   2.101       .  S
Cu623      Cu624   2.230       .  S
Cu624       O921   1.915       .  S
Cu624       O923   1.988       .  S
C625        C676   1.498       .  S
C626        C701   1.496       .  S
C627        C693   1.502       .  S
C628        C660   1.502       .  S
O629       Cu637   2.067   1_565  S
O629        C639   1.284       .  A
O630        C640   1.285       .  A
O631        C641   1.290       .  A
O632       Cu939   2.119   1_564  S
O632        C642   1.289       .  A
O633        C642   1.248       .  A
O634       Cu638   1.914       .  S
O634        C641   1.249       .  A
O635       Cu940   2.005   1_554  S
O635        C640   1.270       .  A
O636        C639   1.266       .  A
Cu637       O934   2.119   1_545  S
Cu638       O937   2.005       .  S
C639        C685   1.504       .  S
C640        C661   1.511       .  S
C641        C677   1.512       .  S
C642        C668   1.512       .  S
O643       Cu651   2.058       .  S
O643        C653   1.283       .  A
O644      Cu2161   2.072       .  S
O644        C654   1.283       .  A
O645      Cu1859   2.125       .  S
O645        C655   1.290       .  A
O646       Cu953   2.121       .  S
O646        C656   1.292       .  A
O647      Cu1860   1.917       .  S
O647        C656   1.248       .  A
O648       Cu954   1.921       .  S
O648        C655   1.250       .  A
O649       Cu652   2.012       .  S
O649        C654   1.271       .  A
O650      Cu2162   2.009       .  S
O650        C653   1.270       .  A
Cu651      O2154   2.072   1_554  S
Cu651      O1853   2.125       .  S
Cu651       O948   2.121   1_554  S
Cu651     Cu2162   2.261       .  S
Cu652      O1855   1.917   1_455  S
Cu652       O950   1.921       .  S
Cu652      O2160   2.009   1_455  S
Cu652     Cu2161   2.261       .  S
C653        C669   1.510       .  S
C654        C692   1.513       .  S
C655        C700   1.518       .  S
C656        C684   1.517       .  S
C657        C867   1.478       .  S
C657       C1866   1.427       .  A
C657        C662   1.403       .  A
C658        C803   1.515       .  S
C658       C1865   1.427   1_455  A
C658        C659   1.415       .  A
C659        C660   1.409       .  A
C659        H664   1.082       .  S
C660       C1869   1.449   1_455  A
C661       C1868   1.449       .  A
C661        C662   1.393       .  A
C662        H663   1.086       .  S
C665        C811   1.483       .  S
C665        C666   1.422       .  A
C665        C670   1.398       .  A
C666        C787   1.501       .  S
C666        C667   1.416       .  A
C667        C668   1.409       .  A
C667        H672   1.084       .  S
C668        C669   1.454       .  A
C669        C670   1.400       .  A
C670        H671   1.085       .  S
C673        C843   1.504       .  S
C673       C1882   1.423       .  A
C673        C678   1.418       .  A
C674        C771   1.482       .  S
C674       C1881   1.423   1_455  A
C674        C675   1.398       .  A
C675        C676   1.393       .  A
C675        H680   1.086       .  S
C676       C1885   1.449   1_455  A
C677       C1884   1.449       .  A
C677        C678   1.407       .  A
C678        H679   1.082       .  S
C681        C747   1.490       .  S
C681        C682   1.428       .  A
C681        C686   1.404       .  A
C682        C835   1.505       .  S
C682        C683   1.418       .  A
C683        C684   1.401       .  A
C683        H688   1.082       .  S
C684        C685   1.451       .  A
C685        C686   1.400       .  A
C686        H687   1.086       .  S
C689        C875   1.491       .  S
C689        C694   1.406       .  A
C690        C731   1.486       .  S
C690        C691   1.408       .  A
C691        C692   1.405       .  A
C691        H696   1.085       .  S
C693        C694   1.402       .  A
C694        H695   1.084       .  S
C697        C891   1.490       .  S
C697        C702   1.398       .  A
C698        C715   1.497       .  S
C698        C699   1.420       .  A
C699        C700   1.408       .  A
C699        H704   1.083       .  S
C701        C702   1.392       .  A
C702        H703   1.086       .  S
C705        H706   1.105       .  S
C705        C711   1.540       .  S
C705        C710   1.532       .  S
C705        C709   1.546       .  S
C707        H708   1.111       .  S
C707        C713   1.544       .  S
C707        C712   1.538       .  S
C707        C714   1.541       .  S
C709        C712   1.384       .  D
C709        C795   1.513       .  S
C710        C713   1.379       .  D
C710        C779   1.477       .  S
C711        C714   1.381       .  D
C711        C723   1.502       .  S
C712        C763   1.475       .  S
C713        C755   1.508       .  S
C714        C739   1.489       .  S
C715        C716   1.410       .  A
C715        C720   1.407       .  A
C716        C717   1.399       .  A
C716        H725   1.081   1_565  S
C717        C718   1.401       .  A
C717        H726   1.084       .  S
C718        C724   1.405       .  A
C718        C719   1.411       .  A
C719        C721   1.398       .  A
C719        C720   1.402       .  A
C720        H727   1.084       .  S
C721        C722   1.394       .  A
C721        H728   1.084       .  S
C722        C723   1.410       .  A
C722        H729   1.081       .  S
C723        C724   1.411       .  A
C724        H730   1.081       .  S
C731        C732   1.404       .  A
C731        C736   1.406       .  A
C732        C733   1.399       .  A
C733        C734   1.402       .  A
C733        H742   1.083       .  S
C734        C740   1.408       .  A
C734        C735   1.415       .  A
C735        C737   1.403       .  A
C735        C736   1.409       .  A
C736        H743   1.084       .  S
C737        C738   1.399       .  A
C737        H744   1.083       .  S
C738        C739   1.405       .  A
C738        H745   1.083       .  S
C739        C740   1.405       .  A
C740        H746   1.084       .  S
C747        C748   1.405       .  A
C747        C752   1.411       .  A
C748        C749   1.394       .  A
C748        H757   1.084       .  S
C749        C750   1.400       .  A
C749        H758   1.082       .  S
C750        C756   1.407       .  A
C750        C751   1.413       .  A
C751        C753   1.405       .  A
C751        C752   1.417       .  A
C752        H759   1.082       .  S
C753        C754   1.407       .  A
C753        H760   1.082       .  S
C754        C755   1.410       .  A
C754        H761   1.083       .  S
C755        C756   1.407       .  A
C756        H762   1.070       .  S
C763        C764   1.403       .  A
C763        C768   1.401       .  A
C764        C765   1.395       .  A
C764        H773   1.083       .  S
C765        C766   1.401       .  A
C765        H774   1.084       .  S
C766        C772   1.403       .  A
C766        C767   1.417       .  A
C767        C769   1.400       .  A
C767        C768   1.403       .  A
C768        H775   1.085       .  S
C769        C770   1.395       .  A
C769        H776   1.084       .  S
C770        C771   1.406       .  A
C770        H777   1.083       .  S
C771        C772   1.402       .  A
C772        H778   1.085       .  S
C779        C780   1.402       .  A
C779        C784   1.403       .  A
C780        C781   1.395       .  A
C780        H789   1.084       .  S
C781        C782   1.401       .  A
C781        H790   1.083       .  S
C782        C788   1.404       .  A
C782        C783   1.414       .  A
C783        C785   1.400       .  A
C783        C784   1.407       .  A
C784        H791   1.084       .  S
C785        C786   1.399       .  A
C785        H792   1.083       .  S
C786        C787   1.408       .  A
C786        H793   1.075       .  S
C787        C788   1.408       .  A
C788        H794   1.084       .  S
C795        C796   1.412       .  A
C795        C800   1.413       .  A
C796        C797   1.401       .  A
C796        H805   1.080       .  S
C797        C798   1.402       .  A
C797        H806   1.084       .  S
C798        C804   1.410       .  A
C798        C799   1.408       .  A
C799        C801   1.400       .  A
C799        C800   1.407       .  A
C800        H807   1.078       .  S
C801        C802   1.398       .  A
C801        H808   1.084       .  S
C802        C803   1.412       .  A
C802        H809   1.079       .  S
C803        C804   1.416       .  A
C804        H810   1.083       .  S
C811        C812   1.405       .  A
C811        C816   1.403       .  A
C812        C813   1.399       .  A
C812        H821   1.083       .  S
C813        C814   1.402       .  A
C813        H822   1.084       .  S
C814        C820   1.407       .  A
C814        C815   1.416       .  A
C815        C817   1.400       .  A
C815        C816   1.405       .  A
C816        H823   1.085       .  S
C817        C818   1.395       .  A
C817        H824   1.084       .  S
C818        C819   1.408       .  A
C818        H825   1.083       .  S
C819        C820   1.405       .  A
C820        H826   1.084       .  S
C827        C828   1.409       .  A
C827        C832   1.404       .  A
C828        C829   1.394       .  A
C828        H837   1.082       .  S
C829        C830   1.398       .  A
C829        H838   1.085       .  S
C830        C836   1.403       .  A
C830        C831   1.412       .  A
C831        C833   1.396       .  A
C831        C832   1.404       .  A
C832        H839   1.084       .  S
C833        C834   1.395       .  A
C833        H840   1.085       .  S
C834        C835   1.416       .  A
C834        H841   1.082       .  S
C835        C836   1.409       .  A
C836        H842   1.078       .  S
C843        C844   1.412       .  A
C843        C848   1.409       .  A
C844        C845   1.400       .  A
C844       H2061   1.080       .  S
C845        C846   1.402       .  A
C845        H854   1.085       .  S
C846        C852   1.406       .  A
C846        C847   1.409       .  A
C847        C849   1.396       .  A
C847        C848   1.402       .  A
C848        H855   1.084       .  S
C849        C850   1.395       .  A
C849        H856   1.085       .  S
C850        C851   1.413       .  A
C850        H857   1.076       .  S
C851        C852   1.414       .  A
C852        H858   1.079       .  S
H853       C2052   1.080       .  S
C859        C860   1.404       .  A
C859        C864   1.400       .  A
C860        C861   1.397       .  A
C860        H869   1.083       .  S
C861        C862   1.401       .  A
C861        H870   1.084       .  S
C862        C868   1.405       .  A
C862        C863   1.418       .  A
C863        C865   1.398       .  A
C863        C864   1.402       .  A
C864        H871   1.085       .  S
C865        C866   1.393       .  A
C865        H872   1.084       .  S
C866        C867   1.405       .  A
C866        H873   1.083       .  S
C867        C868   1.403       .  A
C868        H874   1.085       .  S
C875        C876   1.408       .  A
C875        C880   1.405       .  A
C876        C877   1.397       .  A
C876        H885   1.083       .  S
C877        C878   1.400       .  A
C877        H886   1.085       .  S
C878        C884   1.406       .  A
C878        C879   1.415       .  A
C879        C881   1.402       .  A
C879        C880   1.407       .  A
C880        H887   1.080       .  S
C881        C882   1.398       .  A
C881        H888   1.085       .  S
C882        C883   1.403       .  A
C882        H889   1.081       .  S
C883        C884   1.403       .  A
C884        H890   1.082       .  S
C891        C892   1.408       .  A
C891        C896   1.408       .  A
C892        C893   1.391       .  A
C892        H901   1.083       .  S
C893        C894   1.397       .  A
C893        H902   1.084       .  S
C894        C900   1.399       .  A
C894        C895   1.415       .  A
C895        C897   1.405       .  A
C895        C896   1.408       .  A
C896        H903   1.084       .  S
C897        C898   1.402       .  A
C897        H904   1.083       .  S
C898        C899   1.402       .  A
C898        H905   1.083       .  S
C899        C900   1.398       .  A
C900        H906   1.084       .  S
C907        H908   1.104       .  S
C907        C913   1.555       .  S
C907        C912   1.540       .  S
C907        C911   1.528       .  S
C909        H910   1.111       .  S
C909        C915   1.532       .  S
C909        C914   1.538       .  S
C909        C916   1.532       .  S
C911        C914   1.370       .  D
C911       C1185   1.484       .  S
C912        C915   1.378       .  D
C912       C1129   1.493       .  S
C913        C916   1.388       .  D
C913       C1153   1.514       .  S
C914       C1201   1.474       .  S
C915       C1121   1.493       .  S
C916       C1161   1.476       .  S
O917       Cu925   2.058   1_556  S
O917        C927   1.284       .  A
O918        C928   1.284       .  A
O919       Cu925   2.097   1_556  S
O919        C929   1.287       .  A
O920        C930   1.288       .  A
O921        C930   1.250       .  A
O922       Cu926   1.921   1_556  S
O922        C929   1.248       .  A
O923        C928   1.265       .  A
O924       Cu926   1.993   1_556  S
O924        C927   1.268       .  A
Cu925      Cu926   2.230       .  S
C927        C978   1.498       .  S
C928       C1003   1.496       .  S
C929        C995   1.502       .  S
C930        C962   1.502       .  S
O931       Cu939   2.067   1_565  S
O931        C941   1.284       .  A
O932        C942   1.285       .  A
O933        C943   1.290       .  A
O934        C944   1.289       .  A
O935        C944   1.248       .  A
O936       Cu940   1.914       .  S
O936        C943   1.249       .  A
O937        C942   1.270       .  A
O938        C941   1.266       .  A
C941        C987   1.504       .  S
C942        C963   1.511       .  S
C943        C979   1.512       .  S
C944        C970   1.512       .  S
O945       Cu953   2.058       .  S
O945        C955   1.283       .  A
O946      Cu1859   2.072   1_556  S
O946        C956   1.283       .  A
O947      Cu2161   2.125       .  S
O947        C957   1.290       .  A
O948        C958   1.292       .  A
O949      Cu2162   1.917   1_556  S
O949        C958   1.248       .  A
O950        C957   1.250       .  A
O951       Cu954   2.012   1_556  S
O951        C956   1.271       .  A
O952      Cu1860   2.009       .  S
O952        C955   1.270       .  A
Cu953      O1852   2.072       .  S
Cu953      O2155   2.125       .  S
Cu953     Cu1860   2.261       .  S
Cu954      O2157   1.917   1_454  S
Cu954      O1858   2.009   1_455  S
Cu954     Cu1859   2.261       .  S
C955        C971   1.510       .  S
C956        C994   1.513       .  S
C957       C1002   1.518       .  S
C958        C986   1.517       .  S
C959       C1169   1.478       .  S
C959       C2168   1.427       .  A
C959        C964   1.403       .  A
C960       C1105   1.515       .  S
C960       C2167   1.427   1_455  A
C960        C961   1.415       .  A
C961        C962   1.409       .  A
C961        H966   1.082       .  S
C962       C2171   1.449   1_455  A
C963       C2170   1.449       .  A
C963        C964   1.393       .  A
C964        H965   1.086       .  S
C967       C1113   1.483       .  S
C967        C968   1.422       .  A
C967        C972   1.398       .  A
C968       C1089   1.501       .  S
C968        C969   1.416       .  A
C969        C970   1.409       .  A
C969        H974   1.084       .  S
C970        C971   1.454       .  A
C971        C972   1.400       .  A
C972        H973   1.085       .  S
C975       C1145   1.504       .  S
C975       C2184   1.423       .  A
C975        C980   1.418       .  A
C976       C1073   1.482       .  S
C976       C2183   1.423   1_455  A
C976        C977   1.398       .  A
C977        C978   1.393       .  A
C977        H982   1.086       .  S
C978       C2187   1.449   1_455  A
C979       C2186   1.449       .  A
C979        C980   1.407       .  A
C980        H981   1.082       .  S
C983       C1049   1.490       .  S
C983        C984   1.428       .  A
C983        C988   1.404       .  A
C984       C1137   1.505       .  S
C984        C985   1.418       .  A
C985        C986   1.401       .  A
C985        H990   1.082       .  S
C986        C987   1.451       .  A
C987        C988   1.400       .  A
C988        H989   1.086       .  S
C991       C1177   1.491       .  S
C991        C996   1.406       .  A
C992       C1033   1.486       .  S
C992        C993   1.408       .  A
C993        C994   1.405       .  A
C993        H998   1.085       .  S
C995        C996   1.402       .  A
C996        H997   1.084       .  S
C999       C1193   1.490       .  S
C999       C1004   1.398       .  A
C1000      C1017   1.497       .  S
C1000      C1001   1.420       .  A
C1001      C1002   1.408       .  A
C1001      H1006   1.083       .  S
C1003      C1004   1.392       .  A
C1004      H1005   1.086       .  S
C1007      H1008   1.105       .  S
C1007      C1013   1.540       .  S
C1007      C1012   1.532       .  S
C1007      C1011   1.546       .  S
C1009      H1010   1.111       .  S
C1009      C1015   1.544       .  S
C1009      C1014   1.538       .  S
C1009      C1016   1.541       .  S
C1011      C1014   1.384       .  D
C1011      C1097   1.513       .  S
C1012      C1015   1.379       .  D
C1012      C1081   1.477       .  S
C1013      C1016   1.381       .  D
C1013      C1025   1.502       .  S
C1014      C1065   1.475       .  S
C1015      C1057   1.508       .  S
C1016      C1041   1.489       .  S
C1017      C1018   1.410       .  A
C1017      C1022   1.407       .  A
C1018      C1019   1.399       .  A
C1018      H1027   1.081   1_565  S
C1019      C1020   1.401       .  A
C1019      H1028   1.084       .  S
C1020      C1026   1.405       .  A
C1020      C1021   1.411       .  A
C1021      C1023   1.398       .  A
C1021      C1022   1.402       .  A
C1022      H1029   1.084       .  S
C1023      C1024   1.394       .  A
C1023      H1030   1.084       .  S
C1024      C1025   1.410       .  A
C1024      H1031   1.081       .  S
C1025      C1026   1.411       .  A
C1026      H1032   1.081       .  S
C1033      C1034   1.404       .  A
C1033      C1038   1.406       .  A
C1034      C1035   1.399       .  A
C1035      C1036   1.402       .  A
C1035      H1044   1.083       .  S
C1036      C1042   1.408       .  A
C1036      C1037   1.415       .  A
C1037      C1039   1.403       .  A
C1037      C1038   1.409       .  A
C1038      H1045   1.084       .  S
C1039      C1040   1.399       .  A
C1039      H1046   1.083       .  S
C1040      C1041   1.405       .  A
C1040      H1047   1.083       .  S
C1041      C1042   1.405       .  A
C1042      H1048   1.084       .  S
C1049      C1050   1.405       .  A
C1049      C1054   1.411       .  A
C1050      C1051   1.394       .  A
C1050      H1059   1.084       .  S
C1051      C1052   1.400       .  A
C1051      H1060   1.082       .  S
C1052      C1058   1.407       .  A
C1052      C1053   1.413       .  A
C1053      C1055   1.405       .  A
C1053      C1054   1.417       .  A
C1054      H1061   1.082       .  S
C1055      C1056   1.407       .  A
C1055      H1062   1.082       .  S
C1056      C1057   1.410       .  A
C1056      H1063   1.083       .  S
C1057      C1058   1.407       .  A
C1058      H1064   1.070       .  S
C1065      C1066   1.403       .  A
C1065      C1070   1.401       .  A
C1066      C1067   1.395       .  A
C1066      H1075   1.083       .  S
C1067      C1068   1.401       .  A
C1067      H1076   1.084       .  S
C1068      C1074   1.403       .  A
C1068      C1069   1.417       .  A
C1069      C1071   1.400       .  A
C1069      C1070   1.403       .  A
C1070      H1077   1.085       .  S
C1071      C1072   1.395       .  A
C1071      H1078   1.084       .  S
C1072      C1073   1.406       .  A
C1072      H1079   1.083       .  S
C1073      C1074   1.402       .  A
C1074      H1080   1.085       .  S
C1081      C1082   1.402       .  A
C1081      C1086   1.403       .  A
C1082      C1083   1.395       .  A
C1082      H1091   1.084       .  S
C1083      C1084   1.401       .  A
C1083      H1092   1.083       .  S
C1084      C1090   1.404       .  A
C1084      C1085   1.414       .  A
C1085      C1087   1.400       .  A
C1085      C1086   1.407       .  A
C1086      H1093   1.084       .  S
C1087      C1088   1.399       .  A
C1087      H1094   1.083       .  S
C1088      C1089   1.408       .  A
C1088      H1095   1.075       .  S
C1089      C1090   1.408       .  A
C1090      H1096   1.084       .  S
C1097      C1098   1.412       .  A
C1097      C1102   1.413       .  A
C1098      C1099   1.401       .  A
C1098      H1107   1.080       .  S
C1099      C1100   1.402       .  A
C1099      H1108   1.084       .  S
C1100      C1106   1.410       .  A
C1100      C1101   1.408       .  A
C1101      C1103   1.400       .  A
C1101      C1102   1.407       .  A
C1102      H1109   1.078       .  S
C1103      C1104   1.398       .  A
C1103      H1110   1.084       .  S
C1104      C1105   1.412       .  A
C1104      H1111   1.079       .  S
C1105      C1106   1.416       .  A
C1106      H1112   1.083       .  S
C1113      C1114   1.405       .  A
C1113      C1118   1.403       .  A
C1114      C1115   1.399       .  A
C1114      H1123   1.083       .  S
C1115      C1116   1.402       .  A
C1115      H1124   1.084       .  S
C1116      C1122   1.407       .  A
C1116      C1117   1.416       .  A
C1117      C1119   1.400       .  A
C1117      C1118   1.405       .  A
C1118      H1125   1.085       .  S
C1119      C1120   1.395       .  A
C1119      H1126   1.084       .  S
C1120      C1121   1.408       .  A
C1120      H1127   1.083       .  S
C1121      C1122   1.405       .  A
C1122      H1128   1.084       .  S
C1129      C1130   1.409       .  A
C1129      C1134   1.404       .  A
C1130      C1131   1.394       .  A
C1130      H1139   1.082       .  S
C1131      C1132   1.398       .  A
C1131      H1140   1.085       .  S
C1132      C1138   1.403       .  A
C1132      C1133   1.412       .  A
C1133      C1135   1.396       .  A
C1133      C1134   1.404       .  A
C1134      H1141   1.084       .  S
C1135      C1136   1.395       .  A
C1135      H1142   1.085       .  S
C1136      C1137   1.416       .  A
C1136      H1143   1.082       .  S
C1137      C1138   1.409       .  A
C1138      H1144   1.078       .  S
C1145      C1146   1.412       .  A
C1145      C1150   1.409       .  A
C1146      C1147   1.400       .  A
C1146      H2363   1.080       .  S
C1147      C1148   1.402       .  A
C1147      H1156   1.085       .  S
C1148      C1154   1.406       .  A
C1148      C1149   1.409       .  A
C1149      C1151   1.396       .  A
C1149      C1150   1.402       .  A
C1150      H1157   1.084       .  S
C1151      C1152   1.395       .  A
C1151      H1158   1.085       .  S
C1152      C1153   1.413       .  A
C1152      H1159   1.076       .  S
C1153      C1154   1.414       .  A
C1154      H1160   1.079       .  S
H1155      C2354   1.080       .  S
C1161      C1162   1.404       .  A
C1161      C1166   1.400       .  A
C1162      C1163   1.397       .  A
C1162      H1171   1.083       .  S
C1163      C1164   1.401       .  A
C1163      H1172   1.084       .  S
C1164      C1170   1.405       .  A
C1164      C1165   1.418       .  A
C1165      C1167   1.398       .  A
C1165      C1166   1.402       .  A
C1166      H1173   1.085       .  S
C1167      C1168   1.393       .  A
C1167      H1174   1.084       .  S
C1168      C1169   1.405       .  A
C1168      H1175   1.083       .  S
C1169      C1170   1.403       .  A
C1170      H1176   1.085       .  S
C1177      C1178   1.408       .  A
C1177      C1182   1.405       .  A
C1178      C1179   1.397       .  A
C1178      H1187   1.083       .  S
C1179      C1180   1.400       .  A
C1179      H1188   1.085       .  S
C1180      C1186   1.406       .  A
C1180      C1181   1.415       .  A
C1181      C1183   1.402       .  A
C1181      C1182   1.407       .  A
C1182      H1189   1.080       .  S
C1183      C1184   1.398       .  A
C1183      H1190   1.085       .  S
C1184      C1185   1.403       .  A
C1184      H1191   1.081       .  S
C1185      C1186   1.403       .  A
C1186      H1192   1.082       .  S
C1193      C1194   1.408       .  A
C1193      C1198   1.408       .  A
C1194      C1195   1.391       .  A
C1194      H1203   1.083       .  S
C1195      C1196   1.397       .  A
C1195      H1204   1.084       .  S
C1196      C1202   1.399       .  A
C1196      C1197   1.415       .  A
C1197      C1199   1.405       .  A
C1197      C1198   1.408       .  A
C1198      H1205   1.084       .  S
C1199      C1200   1.402       .  A
C1199      H1206   1.083       .  S
C1200      C1201   1.402       .  A
C1200      H1207   1.083       .  S
C1201      C1202   1.398       .  A
C1202      H1208   1.084       .  S
C1209      H1210   1.104       .  S
C1209      C1215   1.555       .  S
C1209      C1214   1.540       .  S
C1209      C1213   1.528       .  S
C1211      H1212   1.111       .  S
C1211      C1217   1.532       .  S
C1211      C1216   1.538       .  S
C1211      C1218   1.532       .  S
C1213      C1216   1.370       .  D
C1213      C1487   1.484       .  S
C1214      C1217   1.378       .  D
C1214      C1431   1.493       .  S
C1215      C1218   1.388       .  D
C1215      C1455   1.514       .  S
C1216      C1503   1.474       .  S
C1217      C1423   1.493       .  S
C1218      C1463   1.476       .  S
O1219     Cu1227   2.058       .  S
O1219      C1229   1.284       .  A
O1220     Cu1529   2.059       .  S
O1220      C1230   1.284       .  A
O1221     Cu1227   2.097       .  S
O1221      C1231   1.287       .  A
O1222     Cu1529   2.101       .  S
O1222      C1232   1.288       .  A
O1223     Cu1530   1.915       .  S
O1223      C1232   1.250       .  A
O1224     Cu1228   1.921       .  S
O1224      C1231   1.248       .  A
O1225     Cu1530   1.988       .  S
O1225      C1230   1.265       .  A
O1226     Cu1228   1.993       .  S
O1226      C1229   1.268       .  A
Cu1227     O1522   2.059       .  S
Cu1227     O1524   2.101       .  S
Cu1227    Cu1228   2.230       .  S
Cu1228     O1525   1.915       .  S
Cu1228     O1527   1.988       .  S
C1229      C1280   1.498       .  S
C1230      C1305   1.496       .  S
C1231      C1297   1.502       .  S
C1232      C1264   1.502       .  S
O1233     Cu1241   2.067       .  S
O1233      C1243   1.284       .  A
O1234     Cu2147   2.074   1_554  S
O1234      C1244   1.285       .  A
O1235     Cu1845   2.121       .  S
O1235      C1245   1.290       .  A
O1236     Cu1543   2.119   1_554  S
O1236      C1246   1.289       .  A
O1237     Cu2148   1.923   1_554  S
O1237      C1246   1.248       .  A
O1238     Cu1242   1.914   1_545  S
O1238      C1245   1.249       .  A
O1239     Cu1544   2.005   1_544  S
O1239      C1244   1.270       .  A
O1240     Cu1846   1.999       .  S
O1240      C1243   1.266       .  A
Cu1241     O2140   2.074       .  S
Cu1241     O1839   2.121       .  S
Cu1241     O1538   2.119       .  S
Cu1241    Cu1846   2.241       .  S
Cu1242     O2143   1.923       .  S
Cu1242     O1541   2.005   1_565  S
Cu1242     O1844   1.999       .  S
Cu1242    Cu1845   2.241   1_565  S
C1243      C1289   1.504       .  S
C1244      C1265   1.511       .  S
C1245      C1281   1.512       .  S
C1246      C1272   1.512       .  S
O1247     Cu1255   2.058   1_655  S
O1247      C1257   1.283       .  A
O1248      C1258   1.283       .  A
O1249      C1259   1.290       .  A
O1250     Cu1557   2.121   1_655  S
O1250      C1260   1.292       .  A
O1251      C1260   1.248       .  A
O1252     Cu1558   1.921       .  S
O1252      C1259   1.250       .  A
O1253     Cu1256   2.012       .  S
O1253      C1258   1.271       .  A
O1254      C1257   1.270       .  A
Cu1255     O1552   2.121   1_454  S
Cu1256     O1554   1.921       .  S
C1257      C1273   1.510       .  S
C1258      C1296   1.513       .  S
C1259      C1304   1.518       .  S
C1260      C1288   1.517       .  S
C1261      C1471   1.478       .  S
C1261      C1266   1.403       .  A
C1262      C1407   1.515       .  S
C1262      C1263   1.415       .  A
C1263      C1264   1.409       .  A
C1263      H1268   1.082       .  S
C1265      C1266   1.393       .  A
C1266      H1267   1.086       .  S
C1269      C1415   1.483       .  S
C1269      C1270   1.422       .  A
C1269      C1274   1.398       .  A
C1270      C1391   1.501       .  S
C1270      C1271   1.416       .  A
C1271      C1272   1.409       .  A
C1271      H1276   1.084       .  S
C1272      C1273   1.454       .  A
C1273      C1274   1.400       .  A
C1274      H1275   1.086       .  S
C1277      C1447   1.504       .  S
C1277      C1282   1.418       .  A
C1278      C1375   1.482       .  S
C1278      C1279   1.398       .  A
C1279      C1280   1.393       .  A
C1279      H1284   1.086       .  S
C1281      C1282   1.407       .  A
C1282      H1283   1.082       .  S
C1285      C1351   1.490       .  S
C1285      C1286   1.428       .  A
C1285      C1290   1.404       .  A
C1286      C1439   1.505       .  S
C1286      C1287   1.418       .  A
C1287      C1288   1.401       .  A
C1287      H1292   1.082       .  S
C1288      C1289   1.451       .  A
C1289      C1290   1.400       .  A
C1290      H1291   1.086       .  S
C1293      C1479   1.491       .  S
C1293      C1898   1.420   1_545  A
C1293      C1298   1.406       .  A
C1294      C1335   1.486       .  S
C1294      C1897   1.420       .  A
C1294      C1295   1.408       .  A
C1295      C1296   1.405       .  A
C1295      H1300   1.085       .  S
C1296      C1901   1.451       .  A
C1297      C1900   1.451   1_545  A
C1297      C1298   1.402       .  A
C1298      H1299   1.084       .  S
C1301      C1495   1.490       .  S
C1301      C1906   1.423   1_545  A
C1301      C1306   1.398       .  A
C1302      C1319   1.497       .  S
C1302      C1905   1.423       .  A
C1302      C1303   1.420       .  A
C1303      C1304   1.408       .  A
C1303      H1308   1.083       .  S
C1304      C1909   1.451       .  A
C1305      C1908   1.451   1_545  A
C1305      C1306   1.392       .  A
C1306      H1307   1.086       .  S
C1309      H1310   1.105       .  S
C1309      C1315   1.540       .  S
C1309      C1314   1.532       .  S
C1309      C1313   1.546       .  S
C1311      H1312   1.111       .  S
C1311      C1317   1.544       .  S
C1311      C1316   1.538       .  S
C1311      C1318   1.541       .  S
C1313      C1316   1.384       .  D
C1313      C1399   1.513       .  S
C1314      C1317   1.379       .  D
C1314      C1383   1.477       .  S
C1315      C1318   1.381       .  D
C1315      C1327   1.502       .  S
C1316      C1367   1.475       .  S
C1317      C1359   1.508       .  S
C1318      C1343   1.489       .  S
C1319      C1320   1.410       .  A
C1319      C1324   1.407       .  A
C1320      C1321   1.399       .  A
C1320      H1329   1.081       .  S
C1321      C1322   1.401       .  A
C1321      H1330   1.084       .  S
C1322      C1328   1.405       .  A
C1322      C1323   1.411       .  A
C1323      C1325   1.398       .  A
C1323      C1324   1.402       .  A
C1324      H1331   1.084       .  S
C1325      C1326   1.394       .  A
C1325      H1332   1.084       .  S
C1326      C1327   1.410       .  A
C1326      H1333   1.081       .  S
C1327      C1328   1.411       .  A
C1328      H1334   1.081       .  S
C1335      C1336   1.404       .  A
C1335      C1340   1.406       .  A
C1336      C1337   1.399       .  A
C1336      H1949   1.083       .  S
C1337      C1338   1.402       .  A
C1337      H1346   1.083       .  S
C1338      C1344   1.408       .  A
C1338      C1339   1.415       .  A
C1339      C1341   1.403       .  A
C1339      C1340   1.409       .  A
C1340      H1347   1.084       .  S
C1341      C1342   1.399       .  A
C1341      H1348   1.083       .  S
C1342      C1343   1.405       .  A
C1342      H1349   1.083       .  S
C1343      C1344   1.405       .  A
C1344      H1350   1.084       .  S
H1345      C1940   1.083       .  S
C1351      C1352   1.405       .  A
C1351      C1356   1.411       .  A
C1352      C1353   1.394       .  A
C1352      H1361   1.084       .  S
C1353      C1354   1.400       .  A
C1353      H1362   1.082       .  S
C1354      C1360   1.407       .  A
C1354      C1355   1.413       .  A
C1355      C1357   1.405       .  A
C1355      C1356   1.417       .  A
C1356      H1363   1.082       .  S
C1357      C1358   1.407       .  A
C1357      H1364   1.082       .  S
C1358      C1359   1.410       .  A
C1358      H1365   1.083       .  S
C1359      C1360   1.407       .  A
C1360      H1366   1.070       .  S
C1367      C1368   1.403       .  A
C1367      C1372   1.401       .  A
C1368      C1369   1.395       .  A
C1368      H1377   1.083       .  S
C1369      C1370   1.401       .  A
C1369      H1378   1.084       .  S
C1370      C1376   1.403       .  A
C1370      C1371   1.417       .  A
C1371      C1373   1.400       .  A
C1371      C1372   1.403       .  A
C1372      H1379   1.085       .  S
C1373      C1374   1.395       .  A
C1373      H1380   1.084       .  S
C1374      C1375   1.406       .  A
C1374      H1381   1.083       .  S
C1375      C1376   1.402       .  A
C1376      H1382   1.085       .  S
C1383      C1384   1.402       .  A
C1383      C1388   1.403       .  A
C1384      C1385   1.395       .  A
C1384      H1393   1.084       .  S
C1385      C1386   1.401       .  A
C1385      H1394   1.083       .  S
C1386      C1392   1.404       .  A
C1386      C1387   1.414       .  A
C1387      C1389   1.400       .  A
C1387      C1388   1.407       .  A
C1388      H1395   1.084       .  S
C1389      C1390   1.399       .  A
C1389      H1396   1.083       .  S
C1390      C1391   1.408       .  A
C1390      H1397   1.076       .  S
C1391      C1392   1.408       .  A
C1392      H1398   1.084       .  S
C1399      C1400   1.412       .  A
C1399      C1404   1.413       .  A
C1400      C1401   1.401       .  A
C1400      H1409   1.080       .  S
C1401      C1402   1.402       .  A
C1401      H1410   1.084       .  S
C1402      C1408   1.410       .  A
C1402      C1403   1.408       .  A
C1403      C1405   1.400       .  A
C1403      C1404   1.407       .  A
C1404      H1411   1.078       .  S
C1405      C1406   1.398       .  A
C1405      H1412   1.084       .  S
C1406      C1407   1.412       .  A
C1406      H1413   1.079       .  S
C1407      C1408   1.416       .  A
C1408      H1414   1.083       .  S
C1415      C1416   1.405       .  A
C1415      C1420   1.403       .  A
C1416      C1417   1.399       .  A
C1416      H1425   1.083       .  S
C1417      C1418   1.402       .  A
C1417      H1426   1.084       .  S
C1418      C1424   1.407       .  A
C1418      C1419   1.416       .  A
C1419      C1421   1.400       .  A
C1419      C1420   1.405       .  A
C1420      H1427   1.085       .  S
C1421      C1422   1.395       .  A
C1421      H1428   1.084       .  S
C1422      C1423   1.408       .  A
C1422      H1429   1.083       .  S
C1423      C1424   1.405       .  A
C1424      H1430   1.084       .  S
C1431      C1432   1.409       .  A
C1431      C1436   1.404       .  A
C1432      C1433   1.394       .  A
C1432      H1441   1.082       .  S
C1433      C1434   1.398       .  A
C1433      H1442   1.085       .  S
C1434      C1440   1.403       .  A
C1434      C1435   1.412       .  A
C1435      C1437   1.396       .  A
C1435      C1436   1.404       .  A
C1436      H1443   1.084       .  S
C1437      C1438   1.395       .  A
C1437      H1444   1.085       .  S
C1438      C1439   1.416       .  A
C1438      H1445   1.082       .  S
C1439      C1440   1.409       .  A
C1440      H1446   1.078       .  S
C1447      C1448   1.412       .  A
C1447      C1452   1.409       .  A
C1448      C1449   1.400       .  A
C1449      C1450   1.402       .  A
C1449      H1458   1.085       .  S
C1450      C1456   1.406       .  A
C1450      C1451   1.409       .  A
C1451      C1453   1.396       .  A
C1451      C1452   1.402       .  A
C1452      H1459   1.084       .  S
C1453      C1454   1.395       .  A
C1453      H1460   1.085       .  S
C1454      C1455   1.413       .  A
C1454      H1461   1.076       .  S
C1455      C1456   1.414       .  A
C1456      H1462   1.079       .  S
C1463      C1464   1.404       .  A
C1463      C1468   1.400       .  A
C1464      C1465   1.397       .  A
C1464      H1473   1.083       .  S
C1465      C1466   1.401       .  A
C1465      H1474   1.084       .  S
C1466      C1472   1.405       .  A
C1466      C1467   1.418       .  A
C1467      C1469   1.398       .  A
C1467      C1468   1.402       .  A
C1468      H1475   1.085       .  S
C1469      C1470   1.393       .  A
C1469      H1476   1.084       .  S
C1470      C1471   1.405       .  A
C1470      H1477   1.083       .  S
C1471      C1472   1.403       .  A
C1472      H1478   1.085       .  S
C1479      C1480   1.408       .  A
C1479      C1484   1.405       .  A
C1480      C1481   1.397       .  A
C1480      H1489   1.083       .  S
C1481      C1482   1.400       .  A
C1481      H1490   1.085       .  S
C1482      C1488   1.406       .  A
C1482      C1483   1.415       .  A
C1483      C1485   1.402       .  A
C1483      C1484   1.407       .  A
C1484      H1491   1.080       .  S
C1485      C1486   1.398       .  A
C1485      H1492   1.085       .  S
C1486      C1487   1.403       .  A
C1486      H1493   1.081       .  S
C1487      C1488   1.403       .  A
C1488      H1494   1.082       .  S
C1495      C1496   1.408       .  A
C1495      C1500   1.408       .  A
C1496      C1497   1.391       .  A
C1496      H1505   1.083       .  S
C1497      C1498   1.397       .  A
C1497      H1506   1.084       .  S
C1498      C1504   1.399       .  A
C1498      C1499   1.415       .  A
C1499      C1501   1.405       .  A
C1499      C1500   1.408       .  A
C1500      H1507   1.084       .  S
C1501      C1502   1.402       .  A
C1501      H1508   1.083       .  S
C1502      C1503   1.402       .  A
C1502      H1509   1.083       .  S
C1503      C1504   1.398       .  A
C1504      H1510   1.084       .  S
C1511      H1512   1.104       .  S
C1511      C1517   1.555       .  S
C1511      C1516   1.540       .  S
C1511      C1515   1.528       .  S
C1513      H1514   1.111       .  S
C1513      C1519   1.532       .  S
C1513      C1518   1.538       .  S
C1513      C1520   1.532       .  S
C1515      C1518   1.370       .  D
C1515      C1789   1.484       .  S
C1516      C1519   1.378       .  D
C1516      C1733   1.493       .  S
C1517      C1520   1.388       .  D
C1517      C1757   1.514       .  S
C1518      C1805   1.474       .  S
C1519      C1725   1.493       .  S
C1520      C1765   1.476       .  S
O1521     Cu1529   2.058   1_556  S
O1521      C1531   1.284       .  A
O1522      C1532   1.284       .  A
O1523     Cu1529   2.097   1_556  S
O1523      C1533   1.287       .  A
O1524      C1534   1.288       .  A
O1525      C1534   1.250       .  A
O1526     Cu1530   1.921   1_556  S
O1526      C1533   1.248       .  A
O1527      C1532   1.265       .  A
O1528     Cu1530   1.993   1_556  S
O1528      C1531   1.268       .  A
Cu1529    Cu1530   2.230       .  S
C1531      C1582   1.498       .  S
C1532      C1607   1.496       .  S
C1533      C1599   1.502       .  S
C1534      C1566   1.502       .  S
O1535     Cu1543   2.067       .  S
O1535      C1545   1.284       .  A
O1536     Cu1845   2.074       .  S
O1536      C1546   1.285       .  A
O1537     Cu2147   2.121       .  S
O1537      C1547   1.290       .  A
O1538      C1548   1.289       .  A
O1539     Cu1846   1.923       .  S
O1539      C1548   1.248       .  A
O1540     Cu1544   1.914   1_545  S
O1540      C1547   1.249       .  A
O1541      C1546   1.270       .  A
O1542     Cu2148   1.999       .  S
O1542      C1545   1.266       .  A
Cu1543     O1838   2.074   1_556  S
Cu1543     O2141   2.121       .  S
Cu1543    Cu2148   2.241       .  S
Cu1544     O1841   1.923   1_556  S
Cu1544     O2146   1.999       .  S
Cu1544    Cu2147   2.241   1_565  S
C1545      C1591   1.504       .  S
C1546      C1567   1.511       .  S
C1547      C1583   1.512       .  S
C1548      C1574   1.512       .  S
O1549     Cu1557   2.058   1_655  S
O1549      C1559   1.283       .  A
O1550      C1560   1.283       .  A
O1551      C1561   1.290       .  A
O1552      C1562   1.292       .  A
O1553      C1562   1.248       .  A
O1554      C1561   1.250       .  A
O1555     Cu1558   2.012   1_556  S
O1555      C1560   1.271       .  A
O1556      C1559   1.270       .  A
C1559      C1575   1.510       .  S
C1560      C1598   1.513       .  S
C1561      C1606   1.518       .  S
C1562      C1590   1.517       .  S
C1563      C1773   1.478       .  S
C1563      C1568   1.403       .  A
C1564      C1709   1.515       .  S
C1564      C1565   1.415       .  A
C1565      C1566   1.409       .  A
C1565      H1570   1.082       .  S
C1567      C1568   1.393       .  A
C1568      H1569   1.086       .  S
C1571      C1717   1.483       .  S
C1571      C1572   1.422       .  A
C1571      C1576   1.398       .  A
C1572      C1693   1.501       .  S
C1572      C1573   1.416       .  A
C1573      C1574   1.409       .  A
C1573      H1578   1.084       .  S
C1574      C1575   1.454       .  A
C1575      C1576   1.400       .  A
C1576      H1577   1.085       .  S
C1579      C1749   1.504       .  S
C1579      C1584   1.418       .  A
C1580      C1677   1.482       .  S
C1580      C1581   1.398       .  A
C1581      C1582   1.393       .  A
C1581      H1586   1.086       .  S
C1583      C1584   1.407       .  A
C1584      H1585   1.082       .  S
C1587      C1653   1.490       .  S
C1587      C1588   1.428       .  A
C1587      C1592   1.404       .  A
C1588      C1741   1.505       .  S
C1588      C1589   1.418       .  A
C1589      C1590   1.401       .  A
C1589      H1594   1.082       .  S
C1590      C1591   1.451       .  A
C1591      C1592   1.400       .  A
C1592      H1593   1.086       .  S
C1595      C1781   1.491       .  S
C1595      C2200   1.420   1_545  A
C1595      C1600   1.406       .  A
C1596      C1637   1.486       .  S
C1596      C2199   1.420       .  A
C1596      C1597   1.408       .  A
C1597      C1598   1.405       .  A
C1597      H1602   1.085       .  S
C1598      C2203   1.451       .  A
C1599      C2202   1.451   1_545  A
C1599      C1600   1.402       .  A
C1600      H1601   1.084       .  S
C1603      C1797   1.490       .  S
C1603      C2208   1.423   1_545  A
C1603      C1608   1.398       .  A
C1604      C1621   1.497       .  S
C1604      C2207   1.423       .  A
C1604      C1605   1.420       .  A
C1605      C1606   1.408       .  A
C1605      H1610   1.083       .  S
C1606      C2211   1.451       .  A
C1607      C2210   1.451   1_545  A
C1607      C1608   1.392       .  A
C1608      H1609   1.086       .  S
C1611      H1612   1.105       .  S
C1611      C1617   1.540       .  S
C1611      C1616   1.532       .  S
C1611      C1615   1.546       .  S
C1613      H1614   1.111       .  S
C1613      C1619   1.544       .  S
C1613      C1618   1.538       .  S
C1613      C1620   1.541       .  S
C1615      C1618   1.384       .  D
C1615      C1701   1.513       .  S
C1616      C1619   1.379       .  D
C1616      C1685   1.477       .  S
C1617      C1620   1.381       .  D
C1617      C1629   1.502       .  S
C1618      C1669   1.475       .  S
C1619      C1661   1.508       .  S
C1620      C1645   1.489       .  S
C1621      C1622   1.410       .  A
C1621      C1626   1.407       .  A
C1622      C1623   1.399       .  A
C1622      H1631   1.081       .  S
C1623      C1624   1.401       .  A
C1623      H1632   1.084       .  S
C1624      C1630   1.405       .  A
C1624      C1625   1.411       .  A
C1625      C1627   1.398       .  A
C1625      C1626   1.402       .  A
C1626      H1633   1.084       .  S
C1627      C1628   1.394       .  A
C1627      H1634   1.084       .  S
C1628      C1629   1.410       .  A
C1628      H1635   1.081       .  S
C1629      C1630   1.411       .  A
C1630      H1636   1.081       .  S
C1637      C1638   1.404       .  A
C1637      C1642   1.406       .  A
C1638      C1639   1.399       .  A
C1638      H2251   1.083       .  S
C1639      C1640   1.402       .  A
C1639      H1648   1.083       .  S
C1640      C1646   1.408       .  A
C1640      C1641   1.415       .  A
C1641      C1643   1.403       .  A
C1641      C1642   1.409       .  A
C1642      H1649   1.084       .  S
C1643      C1644   1.399       .  A
C1643      H1650   1.083       .  S
C1644      C1645   1.405       .  A
C1644      H1651   1.083       .  S
C1645      C1646   1.405       .  A
C1646      H1652   1.084       .  S
H1647      C2242   1.083       .  S
C1653      C1654   1.405       .  A
C1653      C1658   1.411       .  A
C1654      C1655   1.394       .  A
C1654      H1663   1.084       .  S
C1655      C1656   1.400       .  A
C1655      H1664   1.082       .  S
C1656      C1662   1.407       .  A
C1656      C1657   1.413       .  A
C1657      C1659   1.405       .  A
C1657      C1658   1.417       .  A
C1658      H1665   1.082       .  S
C1659      C1660   1.407       .  A
C1659      H1666   1.082       .  S
C1660      C1661   1.410       .  A
C1660      H1667   1.083       .  S
C1661      C1662   1.407       .  A
C1662      H1668   1.070       .  S
C1669      C1670   1.403       .  A
C1669      C1674   1.401       .  A
C1670      C1671   1.395       .  A
C1670      H1679   1.083       .  S
C1671      C1672   1.401       .  A
C1671      H1680   1.084       .  S
C1672      C1678   1.403       .  A
C1672      C1673   1.417       .  A
C1673      C1675   1.400       .  A
C1673      C1674   1.403       .  A
C1674      H1681   1.085       .  S
C1675      C1676   1.395       .  A
C1675      H1682   1.084       .  S
C1676      C1677   1.406       .  A
C1676      H1683   1.083       .  S
C1677      C1678   1.402       .  A
C1678      H1684   1.085       .  S
C1685      C1686   1.402       .  A
C1685      C1690   1.403       .  A
C1686      C1687   1.395       .  A
C1686      H1695   1.084       .  S
C1687      C1688   1.401       .  A
C1687      H1696   1.083       .  S
C1688      C1694   1.404       .  A
C1688      C1689   1.414       .  A
C1689      C1691   1.400       .  A
C1689      C1690   1.407       .  A
C1690      H1697   1.084       .  S
C1691      C1692   1.399       .  A
C1691      H1698   1.083       .  S
C1692      C1693   1.408       .  A
C1692      H1699   1.076       .  S
C1693      C1694   1.408       .  A
C1694      H1700   1.084       .  S
C1701      C1702   1.412       .  A
C1701      C1706   1.413       .  A
C1702      C1703   1.401       .  A
C1702      H1711   1.080       .  S
C1703      C1704   1.402       .  A
C1703      H1712   1.084       .  S
C1704      C1710   1.410       .  A
C1704      C1705   1.408       .  A
C1705      C1707   1.400       .  A
C1705      C1706   1.407       .  A
C1706      H1713   1.078       .  S
C1707      C1708   1.398       .  A
C1707      H1714   1.084       .  S
C1708      C1709   1.412       .  A
C1708      H1715   1.079       .  S
C1709      C1710   1.416       .  A
C1710      H1716   1.083       .  S
C1717      C1718   1.405       .  A
C1717      C1722   1.403       .  A
C1718      C1719   1.399       .  A
C1718      H1727   1.083       .  S
C1719      C1720   1.402       .  A
C1719      H1728   1.084       .  S
C1720      C1726   1.407       .  A
C1720      C1721   1.416       .  A
C1721      C1723   1.400       .  A
C1721      C1722   1.405       .  A
C1722      H1729   1.085       .  S
C1723      C1724   1.395       .  A
C1723      H1730   1.084       .  S
C1724      C1725   1.408       .  A
C1724      H1731   1.083       .  S
C1725      C1726   1.405       .  A
C1726      H1732   1.084       .  S
C1733      C1734   1.409       .  A
C1733      C1738   1.404       .  A
C1734      C1735   1.394       .  A
C1734      H1743   1.082       .  S
C1735      C1736   1.398       .  A
C1735      H1744   1.085       .  S
C1736      C1742   1.403       .  A
C1736      C1737   1.412       .  A
C1737      C1739   1.396       .  A
C1737      C1738   1.404       .  A
C1738      H1745   1.084       .  S
C1739      C1740   1.395       .  A
C1739      H1746   1.085       .  S
C1740      C1741   1.416       .  A
C1740      H1747   1.082       .  S
C1741      C1742   1.409       .  A
C1742      H1748   1.078       .  S
C1749      C1750   1.412       .  A
C1749      C1754   1.409       .  A
C1750      C1751   1.400       .  A
C1751      C1752   1.402       .  A
C1751      H1760   1.085       .  S
C1752      C1758   1.406       .  A
C1752      C1753   1.409       .  A
C1753      C1755   1.396       .  A
C1753      C1754   1.402       .  A
C1754      H1761   1.084       .  S
C1755      C1756   1.395       .  A
C1755      H1762   1.085       .  S
C1756      C1757   1.413       .  A
C1756      H1763   1.076       .  S
C1757      C1758   1.414       .  A
C1758      H1764   1.079       .  S
C1765      C1766   1.404       .  A
C1765      C1770   1.400       .  A
C1766      C1767   1.397       .  A
C1766      H1775   1.083       .  S
C1767      C1768   1.401       .  A
C1767      H1776   1.084       .  S
C1768      C1774   1.405       .  A
C1768      C1769   1.418       .  A
C1769      C1771   1.398       .  A
C1769      C1770   1.402       .  A
C1770      H1777   1.085       .  S
C1771      C1772   1.393       .  A
C1771      H1778   1.084       .  S
C1772      C1773   1.405       .  A
C1772      H1779   1.083       .  S
C1773      C1774   1.403       .  A
C1774      H1780   1.085       .  S
C1781      C1782   1.408       .  A
C1781      C1786   1.405       .  A
C1782      C1783   1.397       .  A
C1782      H1791   1.083       .  S
C1783      C1784   1.400       .  A
C1783      H1792   1.085       .  S
C1784      C1790   1.406       .  A
C1784      C1785   1.415       .  A
C1785      C1787   1.402       .  A
C1785      C1786   1.407       .  A
C1786      H1793   1.080       .  S
C1787      C1788   1.398       .  A
C1787      H1794   1.085       .  S
C1788      C1789   1.403       .  A
C1788      H1795   1.081       .  S
C1789      C1790   1.403       .  A
C1790      H1796   1.082       .  S
C1797      C1798   1.408       .  A
C1797      C1802   1.408       .  A
C1798      C1799   1.391       .  A
C1798      H1807   1.083       .  S
C1799      C1800   1.397       .  A
C1799      H1808   1.084       .  S
C1800      C1806   1.399       .  A
C1800      C1801   1.415       .  A
C1801      C1803   1.405       .  A
C1801      C1802   1.408       .  A
C1802      H1809   1.084       .  S
C1803      C1804   1.402       .  A
C1803      H1810   1.083       .  S
C1804      C1805   1.402       .  A
C1804      H1811   1.083       .  S
C1805      C1806   1.398       .  A
C1806      H1812   1.084       .  S
C1813      H1814   1.104       .  S
C1813      C1819   1.555       .  S
C1813      C1818   1.540       .  S
C1813      C1817   1.528       .  S
C1815      H1816   1.111       .  S
C1815      C1821   1.532       .  S
C1815      C1820   1.538       .  S
C1815      C1822   1.532       .  S
C1817      C1820   1.370       .  D
C1817      C2091   1.484       .  S
C1818      C1821   1.378       .  D
C1818      C2035   1.493       .  S
C1819      C1822   1.388       .  D
C1819      C2059   1.514       .  S
C1820      C2107   1.474       .  S
C1821      C2027   1.493       .  S
C1822      C2067   1.476       .  S
O1823     Cu1831   2.058       .  S
O1823      C1833   1.284       .  A
O1824     Cu2133   2.059       .  S
O1824      C1834   1.284       .  A
O1825     Cu1831   2.097       .  S
O1825      C1835   1.287       .  A
O1826     Cu2133   2.101       .  S
O1826      C1836   1.288       .  A
O1827     Cu2134   1.915       .  S
O1827      C1836   1.250       .  A
O1828     Cu1832   1.921       .  S
O1828      C1835   1.248       .  A
O1829     Cu2134   1.988       .  S
O1829      C1834   1.265       .  A
O1830     Cu1832   1.993       .  S
O1830      C1833   1.268       .  A
Cu1831     O2126   2.059       .  S
Cu1831     O2128   2.101       .  S
Cu1831    Cu1832   2.230       .  S
Cu1832     O2129   1.915       .  S
Cu1832     O2131   1.988       .  S
C1833      C1884   1.498       .  S
C1834      C1909   1.496       .  S
C1835      C1901   1.502       .  S
C1836      C1868   1.502       .  S
O1837     Cu1845   2.067   1_565  S
O1837      C1847   1.284       .  A
O1838      C1848   1.285       .  A
O1839      C1849   1.290       .  A
O1840     Cu2147   2.119   1_564  S
O1840      C1850   1.289       .  A
O1841      C1850   1.248       .  A
O1842     Cu1846   1.914       .  S
O1842      C1849   1.249       .  A
O1843     Cu2148   2.005   1_554  S
O1843      C1848   1.270       .  A
O1844      C1847   1.266       .  A
Cu1845     O2142   2.119   1_545  S
Cu1846     O2145   2.005       .  S
C1847      C1893   1.504       .  S
C1848      C1869   1.511       .  S
C1849      C1885   1.512       .  S
C1850      C1876   1.512       .  S
O1851     Cu1859   2.058   1_655  S
O1851      C1861   1.283       .  A
O1852      C1862   1.283       .  A
O1853      C1863   1.290       .  A
O1854     Cu2161   2.121   1_655  S
O1854      C1864   1.292       .  A
O1855      C1864   1.248       .  A
O1856     Cu2162   1.921       .  S
O1856      C1863   1.250       .  A
O1857     Cu1860   2.012       .  S
O1857      C1862   1.271       .  A
O1858      C1861   1.270       .  A
Cu1859     O2156   2.121   1_454  S
Cu1860     O2158   1.921       .  S
C1861      C1877   1.510       .  S
C1862      C1900   1.513       .  S
C1863      C1908   1.518       .  S
C1864      C1892   1.517       .  S
C1865      C2075   1.478       .  S
C1865      C1870   1.403       .  A
C1866      C2011   1.515       .  S
C1866      C1867   1.415       .  A
C1867      C1868   1.409       .  A
C1867      H1872   1.082       .  S
C1869      C1870   1.393       .  A
C1870      H1871   1.086       .  S
C1873      C2019   1.483       .  S
C1873      C1874   1.422       .  A
C1873      C1878   1.398       .  A
C1874      C1995   1.501       .  S
C1874      C1875   1.416       .  A
C1875      C1876   1.409       .  A
C1875      H1880   1.084       .  S
C1876      C1877   1.454       .  A
C1877      C1878   1.400       .  A
C1878      H1879   1.085       .  S
C1881      C2051   1.504       .  S
C1881      C1886   1.418       .  A
C1882      C1979   1.482       .  S
C1882      C1883   1.398       .  A
C1883      C1884   1.393       .  A
C1883      H1888   1.086       .  S
C1885      C1886   1.407       .  A
C1886      H1887   1.082       .  S
C1889      C1955   1.490       .  S
C1889      C1890   1.428       .  A
C1889      C1894   1.404       .  A
C1890      C2043   1.505       .  S
C1890      C1891   1.418       .  A
C1891      C1892   1.401       .  A
C1891      H1896   1.082       .  S
C1892      C1893   1.451       .  A
C1893      C1894   1.400       .  A
C1894      H1895   1.086       .  S
C1897      C2083   1.491       .  S
C1897      C1902   1.406       .  A
C1898      C1939   1.486       .  S
C1898      C1899   1.408       .  A
C1899      C1900   1.405       .  A
C1899      H1904   1.085       .  S
C1901      C1902   1.402       .  A
C1902      H1903   1.084       .  S
C1905      C2099   1.490       .  S
C1905      C1910   1.398       .  A
C1906      C1923   1.497       .  S
C1906      C1907   1.420       .  A
C1907      C1908   1.408       .  A
C1907      H1912   1.083       .  S
C1909      C1910   1.392       .  A
C1910      H1911   1.086       .  S
C1913      H1914   1.105       .  S
C1913      C1919   1.540       .  S
C1913      C1918   1.532       .  S
C1913      C1917   1.546       .  S
C1915      H1916   1.111       .  S
C1915      C1921   1.544       .  S
C1915      C1920   1.538       .  S
C1915      C1922   1.541       .  S
C1917      C1920   1.384       .  D
C1917      C2003   1.513       .  S
C1918      C1921   1.379       .  D
C1918      C1987   1.477       .  S
C1919      C1922   1.381       .  D
C1919      C1931   1.502       .  S
C1920      C1971   1.475       .  S
C1921      C1963   1.508       .  S
C1922      C1947   1.489       .  S
C1923      C1924   1.410       .  A
C1923      C1928   1.407       .  A
C1924      C1925   1.399       .  A
C1924      H1933   1.081   1_565  S
C1925      C1926   1.401       .  A
C1925      H1934   1.084       .  S
C1926      C1932   1.405       .  A
C1926      C1927   1.411       .  A
C1927      C1929   1.398       .  A
C1927      C1928   1.402       .  A
C1928      H1935   1.084       .  S
C1929      C1930   1.394       .  A
C1929      H1936   1.084       .  S
C1930      C1931   1.410       .  A
C1930      H1937   1.081       .  S
C1931      C1932   1.411       .  A
C1932      H1938   1.081       .  S
C1939      C1940   1.404       .  A
C1939      C1944   1.406       .  A
C1940      C1941   1.399       .  A
C1941      C1942   1.402       .  A
C1941      H1950   1.083       .  S
C1942      C1948   1.408       .  A
C1942      C1943   1.415       .  A
C1943      C1945   1.403       .  A
C1943      C1944   1.409       .  A
C1944      H1951   1.084       .  S
C1945      C1946   1.399       .  A
C1945      H1952   1.083       .  S
C1946      C1947   1.405       .  A
C1946      H1953   1.083       .  S
C1947      C1948   1.405       .  A
C1948      H1954   1.084       .  S
C1955      C1956   1.405       .  A
C1955      C1960   1.411       .  A
C1956      C1957   1.394       .  A
C1956      H1965   1.084       .  S
C1957      C1958   1.400       .  A
C1957      H1966   1.082       .  S
C1958      C1964   1.407       .  A
C1958      C1959   1.413       .  A
C1959      C1961   1.405       .  A
C1959      C1960   1.417       .  A
C1960      H1967   1.082       .  S
C1961      C1962   1.407       .  A
C1961      H1968   1.082       .  S
C1962      C1963   1.410       .  A
C1962      H1969   1.083       .  S
C1963      C1964   1.407       .  A
C1964      H1970   1.070       .  S
C1971      C1972   1.403       .  A
C1971      C1976   1.401       .  A
C1972      C1973   1.395       .  A
C1972      H1981   1.083       .  S
C1973      C1974   1.401       .  A
C1973      H1982   1.084       .  S
C1974      C1980   1.403       .  A
C1974      C1975   1.417       .  A
C1975      C1977   1.400       .  A
C1975      C1976   1.403       .  A
C1976      H1983   1.085       .  S
C1977      C1978   1.395       .  A
C1977      H1984   1.084       .  S
C1978      C1979   1.406       .  A
C1978      H1985   1.083       .  S
C1979      C1980   1.402       .  A
C1980      H1986   1.085       .  S
C1987      C1988   1.402       .  A
C1987      C1992   1.403       .  A
C1988      C1989   1.395       .  A
C1988      H1997   1.084       .  S
C1989      C1990   1.401       .  A
C1989      H1998   1.083       .  S
C1990      C1996   1.404       .  A
C1990      C1991   1.414       .  A
C1991      C1993   1.400       .  A
C1991      C1992   1.407       .  A
C1992      H1999   1.084       .  S
C1993      C1994   1.399       .  A
C1993      H2000   1.083       .  S
C1994      C1995   1.408       .  A
C1994      H2001   1.075       .  S
C1995      C1996   1.408       .  A
C1996      H2002   1.084       .  S
C2003      C2004   1.412       .  A
C2003      C2008   1.413       .  A
C2004      C2005   1.401       .  A
C2004      H2013   1.080       .  S
C2005      C2006   1.402       .  A
C2005      H2014   1.084       .  S
C2006      C2012   1.410       .  A
C2006      C2007   1.408       .  A
C2007      C2009   1.400       .  A
C2007      C2008   1.407       .  A
C2008      H2015   1.078       .  S
C2009      C2010   1.398       .  A
C2009      H2016   1.084       .  S
C2010      C2011   1.412       .  A
C2010      H2017   1.079       .  S
C2011      C2012   1.416       .  A
C2012      H2018   1.083       .  S
C2019      C2020   1.405       .  A
C2019      C2024   1.403       .  A
C2020      C2021   1.399       .  A
C2020      H2029   1.083       .  S
C2021      C2022   1.402       .  A
C2021      H2030   1.084       .  S
C2022      C2028   1.407       .  A
C2022      C2023   1.416       .  A
C2023      C2025   1.400       .  A
C2023      C2024   1.405       .  A
C2024      H2031   1.085       .  S
C2025      C2026   1.395       .  A
C2025      H2032   1.084       .  S
C2026      C2027   1.408       .  A
C2026      H2033   1.083       .  S
C2027      C2028   1.405       .  A
C2028      H2034   1.084       .  S
C2035      C2036   1.409       .  A
C2035      C2040   1.404       .  A
C2036      C2037   1.394       .  A
C2036      H2045   1.082       .  S
C2037      C2038   1.398       .  A
C2037      H2046   1.085       .  S
C2038      C2044   1.403       .  A
C2038      C2039   1.412       .  A
C2039      C2041   1.396       .  A
C2039      C2040   1.404       .  A
C2040      H2047   1.084       .  S
C2041      C2042   1.395       .  A
C2041      H2048   1.085       .  S
C2042      C2043   1.416       .  A
C2042      H2049   1.082       .  S
C2043      C2044   1.409       .  A
C2044      H2050   1.078       .  S
C2051      C2052   1.412       .  A
C2051      C2056   1.409       .  A
C2052      C2053   1.400       .  A
C2053      C2054   1.402       .  A
C2053      H2062   1.085       .  S
C2054      C2060   1.406       .  A
C2054      C2055   1.409       .  A
C2055      C2057   1.396       .  A
C2055      C2056   1.402       .  A
C2056      H2063   1.084       .  S
C2057      C2058   1.395       .  A
C2057      H2064   1.085       .  S
C2058      C2059   1.413       .  A
C2058      H2065   1.076       .  S
C2059      C2060   1.414       .  A
C2060      H2066   1.079       .  S
C2067      C2068   1.404       .  A
C2067      C2072   1.400       .  A
C2068      C2069   1.397       .  A
C2068      H2077   1.083       .  S
C2069      C2070   1.401       .  A
C2069      H2078   1.084       .  S
C2070      C2076   1.405       .  A
C2070      C2071   1.418       .  A
C2071      C2073   1.398       .  A
C2071      C2072   1.402       .  A
C2072      H2079   1.085       .  S
C2073      C2074   1.393       .  A
C2073      H2080   1.084       .  S
C2074      C2075   1.405       .  A
C2074      H2081   1.083       .  S
C2075      C2076   1.403       .  A
C2076      H2082   1.085       .  S
C2083      C2084   1.408       .  A
C2083      C2088   1.405       .  A
C2084      C2085   1.397       .  A
C2084      H2093   1.083       .  S
C2085      C2086   1.400       .  A
C2085      H2094   1.085       .  S
C2086      C2092   1.406       .  A
C2086      C2087   1.415       .  A
C2087      C2089   1.402       .  A
C2087      C2088   1.407       .  A
C2088      H2095   1.080       .  S
C2089      C2090   1.398       .  A
C2089      H2096   1.085       .  S
C2090      C2091   1.403       .  A
C2090      H2097   1.081       .  S
C2091      C2092   1.403       .  A
C2092      H2098   1.082       .  S
C2099      C2100   1.408       .  A
C2099      C2104   1.408       .  A
C2100      C2101   1.391       .  A
C2100      H2109   1.083       .  S
C2101      C2102   1.397       .  A
C2101      H2110   1.084       .  S
C2102      C2108   1.399       .  A
C2102      C2103   1.415       .  A
C2103      C2105   1.405       .  A
C2103      C2104   1.408       .  A
C2104      H2111   1.084       .  S
C2105      C2106   1.402       .  A
C2105      H2112   1.083       .  S
C2106      C2107   1.402       .  A
C2106      H2113   1.083       .  S
C2107      C2108   1.398       .  A
C2108      H2114   1.084       .  S
C2115      H2116   1.104       .  S
C2115      C2121   1.555       .  S
C2115      C2120   1.540       .  S
C2115      C2119   1.528       .  S
C2117      H2118   1.111       .  S
C2117      C2123   1.532       .  S
C2117      C2122   1.538       .  S
C2117      C2124   1.532       .  S
C2119      C2122   1.370       .  D
C2119      C2393   1.484       .  S
C2120      C2123   1.378       .  D
C2120      C2337   1.493       .  S
C2121      C2124   1.388       .  D
C2121      C2361   1.514       .  S
C2122      C2409   1.474       .  S
C2123      C2329   1.493       .  S
C2124      C2369   1.476       .  S
O2125     Cu2133   2.058   1_556  S
O2125      C2135   1.284       .  A
O2126      C2136   1.284       .  A
O2127     Cu2133   2.097   1_556  S
O2127      C2137   1.287       .  A
O2128      C2138   1.288       .  A
O2129      C2138   1.250       .  A
O2130     Cu2134   1.921   1_556  S
O2130      C2137   1.248       .  A
O2131      C2136   1.265       .  A
O2132     Cu2134   1.993   1_556  S
O2132      C2135   1.268       .  A
Cu2133    Cu2134   2.230       .  S
C2135      C2186   1.498       .  S
C2136      C2211   1.496       .  S
C2137      C2203   1.502       .  S
C2138      C2170   1.502       .  S
O2139     Cu2147   2.067   1_565  S
O2139      C2149   1.284       .  A
O2140      C2150   1.285       .  A
O2141      C2151   1.290       .  A
O2142      C2152   1.289       .  A
O2143      C2152   1.248       .  A
O2144     Cu2148   1.914       .  S
O2144      C2151   1.249       .  A
O2145      C2150   1.270       .  A
O2146      C2149   1.266       .  A
C2149      C2195   1.504       .  S
C2150      C2171   1.511       .  S
C2151      C2187   1.512       .  S
C2152      C2178   1.512       .  S
O2153     Cu2161   2.058   1_655  S
O2153      C2163   1.283       .  A
O2154      C2164   1.283       .  A
O2155      C2165   1.290       .  A
O2156      C2166   1.292       .  A
O2157      C2166   1.248       .  A
O2158      C2165   1.250       .  A
O2159     Cu2162   2.012   1_556  S
O2159      C2164   1.271       .  A
O2160      C2163   1.270       .  A
C2163      C2179   1.510       .  S
C2164      C2202   1.513       .  S
C2165      C2210   1.518       .  S
C2166      C2194   1.517       .  S
C2167      C2377   1.478       .  S
C2167      C2172   1.403       .  A
C2168      C2313   1.515       .  S
C2168      C2169   1.415       .  A
C2169      C2170   1.409       .  A
C2169      H2174   1.082       .  S
C2171      C2172   1.393       .  A
C2172      H2173   1.086       .  S
C2175      C2321   1.483       .  S
C2175      C2176   1.422       .  A
C2175      C2180   1.398       .  A
C2176      C2297   1.501       .  S
C2176      C2177   1.416       .  A
C2177      C2178   1.409       .  A
C2177      H2182   1.084       .  S
C2178      C2179   1.454       .  A
C2179      C2180   1.400       .  A
C2180      H2181   1.085       .  S
C2183      C2353   1.504       .  S
C2183      C2188   1.418       .  A
C2184      C2281   1.482       .  S
C2184      C2185   1.398       .  A
C2185      C2186   1.393       .  A
C2185      H2190   1.086       .  S
C2187      C2188   1.407       .  A
C2188      H2189   1.082       .  S
C2191      C2257   1.490       .  S
C2191      C2192   1.428       .  A
C2191      C2196   1.404       .  A
C2192      C2345   1.505       .  S
C2192      C2193   1.418       .  A
C2193      C2194   1.401       .  A
C2193      H2198   1.082       .  S
C2194      C2195   1.451       .  A
C2195      C2196   1.400       .  A
C2196      H2197   1.086       .  S
C2199      C2385   1.491       .  S
C2199      C2204   1.406       .  A
C2200      C2241   1.486       .  S
C2200      C2201   1.408       .  A
C2201      C2202   1.405       .  A
C2201      H2206   1.085       .  S
C2203      C2204   1.402       .  A
C2204      H2205   1.084       .  S
C2207      C2401   1.490       .  S
C2207      C2212   1.398       .  A
C2208      C2225   1.497       .  S
C2208      C2209   1.420       .  A
C2209      C2210   1.408       .  A
C2209      H2214   1.083       .  S
C2211      C2212   1.392       .  A
C2212      H2213   1.086       .  S
C2215      H2216   1.105       .  S
C2215      C2221   1.540       .  S
C2215      C2220   1.532       .  S
C2215      C2219   1.546       .  S
C2217      H2218   1.111       .  S
C2217      C2223   1.544       .  S
C2217      C2222   1.538       .  S
C2217      C2224   1.541       .  S
C2219      C2222   1.384       .  D
C2219      C2305   1.513       .  S
C2220      C2223   1.379       .  D
C2220      C2289   1.477       .  S
C2221      C2224   1.381       .  D
C2221      C2233   1.502       .  S
C2222      C2273   1.475       .  S
C2223      C2265   1.508       .  S
C2224      C2249   1.489       .  S
C2225      C2226   1.410       .  A
C2225      C2230   1.407       .  A
C2226      C2227   1.399       .  A
C2226      H2235   1.081   1_565  S
C2227      C2228   1.401       .  A
C2227      H2236   1.084       .  S
C2228      C2234   1.405       .  A
C2228      C2229   1.411       .  A
C2229      C2231   1.398       .  A
C2229      C2230   1.402       .  A
C2230      H2237   1.084       .  S
C2231      C2232   1.394       .  A
C2231      H2238   1.084       .  S
C2232      C2233   1.410       .  A
C2232      H2239   1.081       .  S
C2233      C2234   1.411       .  A
C2234      H2240   1.081       .  S
C2241      C2242   1.404       .  A
C2241      C2246   1.406       .  A
C2242      C2243   1.399       .  A
C2243      C2244   1.402       .  A
C2243      H2252   1.083       .  S
C2244      C2250   1.408       .  A
C2244      C2245   1.415       .  A
C2245      C2247   1.403       .  A
C2245      C2246   1.409       .  A
C2246      H2253   1.084       .  S
C2247      C2248   1.399       .  A
C2247      H2254   1.083       .  S
C2248      C2249   1.405       .  A
C2248      H2255   1.083       .  S
C2249      C2250   1.405       .  A
C2250      H2256   1.084       .  S
C2257      C2258   1.405       .  A
C2257      C2262   1.411       .  A
C2258      C2259   1.394       .  A
C2258      H2267   1.084       .  S
C2259      C2260   1.400       .  A
C2259      H2268   1.082       .  S
C2260      C2266   1.407       .  A
C2260      C2261   1.413       .  A
C2261      C2263   1.405       .  A
C2261      C2262   1.417       .  A
C2262      H2269   1.082       .  S
C2263      C2264   1.407       .  A
C2263      H2270   1.082       .  S
C2264      C2265   1.410       .  A
C2264      H2271   1.083       .  S
C2265      C2266   1.407       .  A
C2266      H2272   1.070       .  S
C2273      C2274   1.403       .  A
C2273      C2278   1.401       .  A
C2274      C2275   1.395       .  A
C2274      H2283   1.083       .  S
C2275      C2276   1.401       .  A
C2275      H2284   1.084       .  S
C2276      C2282   1.403       .  A
C2276      C2277   1.417       .  A
C2277      C2279   1.400       .  A
C2277      C2278   1.403       .  A
C2278      H2285   1.085       .  S
C2279      C2280   1.395       .  A
C2279      H2286   1.084       .  S
C2280      C2281   1.406       .  A
C2280      H2287   1.083       .  S
C2281      C2282   1.402       .  A
C2282      H2288   1.085       .  S
C2289      C2290   1.402       .  A
C2289      C2294   1.403       .  A
C2290      C2291   1.395       .  A
C2290      H2299   1.084       .  S
C2291      C2292   1.401       .  A
C2291      H2300   1.083       .  S
C2292      C2298   1.404       .  A
C2292      C2293   1.414       .  A
C2293      C2295   1.400       .  A
C2293      C2294   1.407       .  A
C2294      H2301   1.084       .  S
C2295      C2296   1.399       .  A
C2295      H2302   1.083       .  S
C2296      C2297   1.408       .  A
C2296      H2303   1.075       .  S
C2297      C2298   1.408       .  A
C2298      H2304   1.084       .  S
C2305      C2306   1.412       .  A
C2305      C2310   1.413       .  A
C2306      C2307   1.401       .  A
C2306      H2315   1.080       .  S
C2307      C2308   1.402       .  A
C2307      H2316   1.084       .  S
C2308      C2314   1.410       .  A
C2308      C2309   1.408       .  A
C2309      C2311   1.400       .  A
C2309      C2310   1.407       .  A
C2310      H2317   1.078       .  S
C2311      C2312   1.398       .  A
C2311      H2318   1.084       .  S
C2312      C2313   1.412       .  A
C2312      H2319   1.079       .  S
C2313      C2314   1.416       .  A
C2314      H2320   1.083       .  S
C2321      C2322   1.405       .  A
C2321      C2326   1.403       .  A
C2322      C2323   1.399       .  A
C2322      H2331   1.083       .  S
C2323      C2324   1.402       .  A
C2323      H2332   1.084       .  S
C2324      C2330   1.407       .  A
C2324      C2325   1.416       .  A
C2325      C2327   1.400       .  A
C2325      C2326   1.405       .  A
C2326      H2333   1.085       .  S
C2327      C2328   1.395       .  A
C2327      H2334   1.084       .  S
C2328      C2329   1.408       .  A
C2328      H2335   1.083       .  S
C2329      C2330   1.405       .  A
C2330      H2336   1.084       .  S
C2337      C2338   1.409       .  A
C2337      C2342   1.404       .  A
C2338      C2339   1.394       .  A
C2338      H2347   1.082       .  S
C2339      C2340   1.398       .  A
C2339      H2348   1.085       .  S
C2340      C2346   1.403       .  A
C2340      C2341   1.412       .  A
C2341      C2343   1.396       .  A
C2341      C2342   1.404       .  A
C2342      H2349   1.084       .  S
C2343      C2344   1.395       .  A
C2343      H2350   1.085       .  S
C2344      C2345   1.416       .  A
C2344      H2351   1.082       .  S
C2345      C2346   1.409       .  A
C2346      H2352   1.078       .  S
C2353      C2354   1.412       .  A
C2353      C2358   1.409       .  A
C2354      C2355   1.400       .  A
C2355      C2356   1.402       .  A
C2355      H2364   1.085       .  S
C2356      C2362   1.406       .  A
C2356      C2357   1.409       .  A
C2357      C2359   1.396       .  A
C2357      C2358   1.402       .  A
C2358      H2365   1.084       .  S
C2359      C2360   1.395       .  A
C2359      H2366   1.085       .  S
C2360      C2361   1.413       .  A
C2360      H2367   1.076       .  S
C2361      C2362   1.414       .  A
C2362      H2368   1.079       .  S
C2369      C2370   1.404       .  A
C2369      C2374   1.400       .  A
C2370      C2371   1.397       .  A
C2370      H2379   1.083       .  S
C2371      C2372   1.401       .  A
C2371      H2380   1.084       .  S
C2372      C2378   1.405       .  A
C2372      C2373   1.418       .  A
C2373      C2375   1.398       .  A
C2373      C2374   1.402       .  A
C2374      H2381   1.085       .  S
C2375      C2376   1.393       .  A
C2375      H2382   1.084       .  S
C2376      C2377   1.405       .  A
C2376      H2383   1.083       .  S
C2377      C2378   1.403       .  A
C2378      H2384   1.085       .  S
C2385      C2386   1.408       .  A
C2385      C2390   1.405       .  A
C2386      C2387   1.397       .  A
C2386      H2395   1.083       .  S
C2387      C2388   1.400       .  A
C2387      H2396   1.085       .  S
C2388      C2394   1.406       .  A
C2388      C2389   1.415       .  A
C2389      C2391   1.402       .  A
C2389      C2390   1.407       .  A
C2390      H2397   1.080       .  S
C2391      C2392   1.398       .  A
C2391      H2398   1.085       .  S
C2392      C2393   1.403       .  A
C2392      H2399   1.081       .  S
C2393      C2394   1.403       .  A
C2394      H2400   1.082       .  S
C2401      C2402   1.408       .  A
C2401      C2406   1.408       .  A
C2402      C2403   1.391       .  A
C2402      H2411   1.083       .  S
C2403      C2404   1.397       .  A
C2403      H2412   1.084       .  S
C2404      C2410   1.399       .  A
C2404      C2405   1.415       .  A
C2405      C2407   1.405       .  A
C2405      C2406   1.408       .  A
C2406      H2413   1.084       .  S
C2407      C2408   1.402       .  A
C2407      H2414   1.083       .  S
C2408      C2409   1.402       .  A
C2408      H2415   1.083       .  S
C2409      C2410   1.398       .  A
C2410      H2416   1.084       .  S
