geometry optimzed in LAMMPS
_audit_creation_date              2020-11-30 
_audit_creation_method            'lammps2cif' 
_symmetry_space_group_name_H-M    'P1' 
_symmetry_Int_Tables_number       1 
_symmetry_cell_setting            triclinic 
loop_ 
_symmetry_equiv_pos_as_xyz 
  x,y,z 
_cell_length_a                    49.19483842758985 
_cell_length_b                    40.350727987003694 
_cell_length_c                    28.8838943981751 
_cell_angle_alpha                 90.44462281197487 
_cell_angle_beta                  89.83528413808946 
_cell_angle_gamma                 90.35223682600164 
loop_ 
_atom_site_label 
_atom_site_type_symbol 
_atom_site_fract_x 
_atom_site_fract_y 
_atom_site_fract_z 
_atom_site_charge 
C1          C  0.42755756  0.43024034  0.86014553    -0.01390
O2          O  0.48960358  0.48552920  0.41796253    -0.74200
O3          O  0.46246601  0.46256810  0.47390068    -0.53110
C4          C  0.48257674  0.48059615  0.45955304     0.79530
O5          O  0.38544388  0.49036126  0.26908072    -0.58800
O6          O  0.40949237  0.46134306  0.21444437    -0.51830
C7          C  0.39238628  0.48337236  0.22720450     0.71540
O8          O  0.37707220  0.49138688  0.42681417    -0.73360
O9          O  0.39821067  0.46275206  0.48380503    -0.53920
C10         C  0.38051226  0.48402587  0.46993518     0.77550
O11         O  0.49114200  0.47663667  0.27003765    -0.58500
O12         O  0.46523543  0.44974757  0.21606748    -0.51620
C13         C  0.48501140  0.46881830  0.22827029     0.74140
Zr14       Zr  0.47359918  0.46637790  0.34681402     2.54710
O15         O  0.47756278  0.02627020  0.33959957    -0.79070
O16         O  0.02252712  0.45715395  0.34716157    -0.92490
Zr17       Zr  0.39457042  0.47704912  0.34897776     2.64680
O18         O  0.40281379  0.03660179  0.35190799    -0.97440
O19         O  0.34587709  0.48636179  0.34305442    -0.79500
O20         O  0.43417220  0.47381718  0.39415134    -0.82860
O21         O  0.43429126  0.47152272  0.30270762    -2.17570
O22         O  0.49053459  0.36591158  0.28795946    -0.66250
O23         O  0.46192487  0.38034960  0.22968857    -0.50810
C24         C  0.48385055  0.36767634  0.24559024     0.72520
O25         O  0.36771305  0.36595813  0.42097304    -0.59160
O26         O  0.39339813  0.39132781  0.47714517    -0.51130
C27         C  0.37342188  0.37287816  0.46297810     0.74320
O28         O  0.36936306  0.36844071  0.26963012    -0.70550
O29         O  0.39746255  0.38999938  0.21489735    -0.49230
C30         C  0.37591684  0.37396064  0.22724354     0.75710
O31         O  0.48369183  0.36180310  0.43416036    -0.65880
O32         O  0.45891773  0.39057960  0.48761448    -0.53080
C33         C  0.47840538  0.37071303  0.47594686     0.74090
Zr34       Zr  0.46485927  0.36959568  0.35714778     2.77540
O35         O  0.45002456  0.31237571  0.35168037    -0.96630
O36         O  0.00853201  0.34179308  0.36305656    -0.77450
Zr37       Zr  0.38614537  0.37929738  0.34746826     2.70070
O38         O  0.38286736  0.31904268  0.34469987    -0.78700
O39         O  0.33699136  0.38608109  0.34984585    -0.97780
Zr40       Zr  0.42854005  0.42540251  0.44060300     2.21500
Zr41       Zr  0.43116151  0.42042507  0.26105053     2.11130
O42         O  0.42684855  0.37131642  0.30603447    -2.46470
O43         O  0.42397816  0.37436545  0.39887741    -0.78490
O44         O  0.47044311  0.41593815  0.30771930    -0.70690
O45         O  0.38932636  0.42854366  0.39259091    -2.31640
O46         O  0.46941590  0.42022821  0.39685233    -2.27850
O47         O  0.39007714  0.42784061  0.30340972    -0.72450
H48         H  0.43661472  0.49023028  0.28239116     0.79550
H49         H  0.37295631  0.43030671  0.41092138     0.80640
H50         H  0.42584428  0.35184525  0.28643995     0.82860
H51         H  0.48534912  0.42010915  0.41622385     0.80470
H52         H  0.33746128  0.46565874  0.35462743     0.43510
H53         H  0.33301280  0.40240431  0.32539604     0.42480
H54         H  0.39182242  0.31237490  0.31537317     0.42150
H55         H  0.45371308  0.30612285  0.31908570     0.40090
H56         H  0.02210613  0.35995770  0.36555295     0.43220
H57         H  0.02605649  0.44403086  0.37530994     0.38000
H58         H  0.45871616  0.03402962  0.33514187     0.44120
H59         H  0.40683989  0.04286485  0.31951559     0.40540
H60         H  0.46390190  0.30027797  0.36953647     0.45460
H61         H  0.03064121  0.47919522  0.35381336     0.44180
H62         H  0.38474997  0.04632857  0.35834177     0.44310
H63         H  0.32952809  0.36483967  0.33792612     0.44670
O64         O  0.48247351  0.23857003  0.92445437    -0.74200
O65         O  0.45949014  0.21193863  0.98222150    -0.53110
C66         C  0.47816475  0.23111892  0.96639722     0.79530
O67         O  0.36755988  0.23566236  0.79018093    -0.58800
O68         O  0.39109564  0.20912895  0.73255266    -0.51830
C69         C  0.37229727  0.22829502  0.74802010     0.71540
O70         O  0.36992042  0.23287192  0.94060734    -0.73360
O71         O  0.39517811  0.20717264  0.99511161    -0.53920
C72         C  0.37516580  0.22550459  0.98271854     0.77550
O73         O  0.48102612  0.23573768  0.77533634    -0.58500
O74         O  0.45592202  0.20765165  0.72157580    -0.51620
C75         C  0.47533089  0.22754898  0.73352505     0.74140
Zr76       Zr  0.46441434  0.22429439  0.85232190     2.54710
O77         O  0.45866260  0.28416142  0.85010004    -0.79070
O78         O  0.01371281  0.22961054  0.84658264    -0.92490
Zr79       Zr  0.38560919  0.22203002  0.86295982     2.64680
O80         O  0.38802309  0.28171363  0.87310916    -0.97440
O81         O  0.33618223  0.22419472  0.86257489    -0.79500
O82         O  0.42659580  0.22547694  0.90393274    -0.82860
O83         O  0.42348896  0.22473163  0.81133522    -2.17570
O84         O  0.48632570  0.12215900  0.78565561    -0.66250
O85         O  0.45805455  0.14093335  0.72918761    -0.50810
C86         C  0.47964012  0.12658870  0.74370903     0.72520
O87         O  0.37807762  0.10653395  0.93649587    -0.59160
O88         O  0.40330884  0.13443042  0.99084451    -0.51130
C89         C  0.38601575  0.11236916  0.97822856     0.74320
O90         O  0.36997274  0.11380980  0.77802521    -0.70550
O91         O  0.39427042  0.13974816  0.72170569    -0.49230
C92         C  0.37520262  0.12009079  0.73506092     0.75710
O93         O  0.48026212  0.11265190  0.93497773    -0.65880
O94         O  0.45924898  0.14346175  0.99072743    -0.53080
C95         C  0.47626193  0.12140194  0.97722742     0.74090
Zr96       Zr  0.46470488  0.12597228  0.85806725     2.77540
O97         O  0.45605151  0.06678961  0.84964464    -0.96630
O98         O  0.01298909  0.11370064  0.86320061    -0.77450
Zr99       Zr  0.38584106  0.12439081  0.85751304     2.70070
O100        O  0.38614679  0.06422263  0.85141490    -0.78700
O101        O  0.33651390  0.12348544  0.86324606    -0.97780
Zr102      Zr  0.42698906  0.17545415  0.94699474     2.21500
Zr103      Zr  0.42442541  0.17422649  0.76802060     2.11130
O104        O  0.42531291  0.12377608  0.81100563    -2.46470
O105        O  0.42560710  0.12492613  0.90379927    -0.78490
O106        O  0.46491397  0.17418918  0.81162190    -0.70690
O107        O  0.38537940  0.17259679  0.90512430    -2.31640
O108        O  0.46649857  0.17606873  0.89923600    -2.27850
O109        O  0.38484940  0.17385206  0.81555725    -0.72450
H110        H  0.42272531  0.24393115  0.79160501     0.79550
H111        H  0.36982105  0.17140137  0.92552281     0.80640
H112        H  0.42558398  0.10468479  0.79062401     0.82860
H113        H  0.48308579  0.17608756  0.91701231     0.80470
H114        H  0.33031687  0.20129522  0.86982737     0.43510
H115        H  0.33033681  0.13911554  0.83926705     0.42480
H116        H  0.39456568  0.05942712  0.82093992     0.42150
H117        H  0.46296287  0.06117145  0.81835069     0.40090
H118        H  0.02186646  0.13567109  0.86671228     0.43220
H119        H  0.02103528  0.21416470  0.86985620     0.38000
H120        H  0.45515521  0.29077389  0.88264814     0.44120
H121        H  0.40440961  0.28829514  0.85550751     0.40540
H122        H  0.46903417  0.05630673  0.87109098     0.45460
H123        H  0.01805176  0.25202470  0.85878666     0.44180
H124        H  0.37246753  0.29018670  0.85516369     0.44310
H125        H  0.33114728  0.10133828  0.85127954     0.44670
O126        O  0.20613996  0.47752940  0.96880333    -0.74200
O127        O  0.24373301  0.46514442  0.92561434    -0.53110
C128        C  0.23157191  0.47620826  0.96312427     0.79530
O129        O  0.13110970  0.36991485  0.94381229    -0.58800
O130        O  0.09611267  0.39078648  0.90160351    -0.51990
C131        C  0.10609259  0.37457769  0.93574329     0.71540
O132        O  0.21783032  0.37358369  0.95256528    -0.73360
O133        O  0.25370503  0.39578602  0.91368107    -0.53920
C134        C  0.24331707  0.37774344  0.94660672     0.77550
O135        O  0.12672497  0.49313689  0.93570491    -0.58500
O136        O  0.09405310  0.45992863  0.90440530    -0.51620
C137        C  0.10222238  0.48306992  0.93248309     0.74140
Zr138      Zr  0.17179043  0.47967502  0.91309646     2.54710
O139        O  0.16279747  0.49974809  0.99144646    -0.79070
O140        O  0.18258149  0.03778309  0.90108613    -0.92490
Zr141      Zr  0.17500135  0.38202143  0.91654772     2.64680
O142        O  0.17589227  0.37420805  0.99993725    -0.97440
O143        O  0.17737771  0.32240634  0.90395076    -0.79500
O144        O  0.19902960  0.43195462  0.91758766    -0.82860
O145        O  0.14712432  0.42969495  0.91580645    -2.17570
O146        O  0.13167552  0.48743227  0.75702495    -0.66250
O147        O  0.09642097  0.46306938  0.79597341    -0.50810
C148        C  0.10652763  0.48148149  0.76419791     0.72520
O149        O  0.22093462  0.37394618  0.75621355    -0.59160
O150        O  0.25503479  0.39473652  0.80201261    -0.51130
C151        C  0.24585527  0.37882102  0.76624972     0.74320
O152        O  0.13296083  0.36346937  0.75221997    -0.70550
O153        O  0.09802058  0.39119154  0.78705429    -0.49230
C154        C  0.10769609  0.37065691  0.75641701     0.75710
O155        O  0.21913924  0.47793345  0.74251902    -0.65880
O156        O  0.25338470  0.46521935  0.79256620    -0.53080
C157        C  0.24427549  0.47684856  0.75334201     0.74090
Zr158      Zr  0.17653098  0.47566676  0.78271878     2.77540
O159        O  0.17592138  0.48220139  0.69894540    -0.96630
O160        O  0.18283935  0.03536825  0.78845186    -0.77450
Zr161      Zr  0.17622371  0.37855137  0.78613382     2.70070
O162        O  0.17762209  0.36766800  0.70319918    -0.78700
O163        O  0.17976444  0.31950176  0.80165263    -0.97780
Zr164      Zr  0.23025687  0.43143185  0.85532543     2.21500
Zr165      Zr  0.12013084  0.42658637  0.84735107     2.11130
O166        O  0.14976362  0.42668752  0.78133065    -2.46470
O167        O  0.20257187  0.42759004  0.78769598    -0.78490
O168        O  0.14552329  0.47778204  0.84556545    -0.70690
O169        O  0.20425877  0.38057490  0.85266650    -2.31640
O170        O  0.20320827  0.48091898  0.85053805    -2.27850
O171        O  0.14703565  0.37730000  0.85057410    -0.72450
H172        H  0.13614196  0.43029734  0.94353762     0.79550
H173        H  0.21599475  0.36149221  0.85382021     0.80640
H174        H  0.13966525  0.42603696  0.75273033     0.82860
H175        H  0.21444756  0.50063254  0.85041986     0.80470
H176        H  0.19698632  0.31709283  0.90468294     0.43510
H177        H  0.16070968  0.31151881  0.80311319     0.42480
H178        H  0.17692597  0.38990957  0.68900591     0.42150
H179        H  0.16265431  0.46547679  0.68764330     0.40090
H180        H  0.17181621  0.04187987  0.81560613     0.43220
H181        H  0.20048211  0.04072704  0.91614842     0.38000
H182        H  0.15709251  0.47987595  0.00903936     0.44120
H183        H  0.16163552  0.38901538  0.01248415     0.40540
H184        H  0.16720857  0.50388432  0.69355959     0.45460
H185        H  0.16979141  0.04966613  0.92178398     0.44180
H186        H  0.16880508  0.35143769  0.00439335     0.44310
H187        H  0.18703539  0.30982479  0.77257978     0.44670
C188        C  0.17614276  0.17187579  0.86072827    -0.01390
C189        C  0.17739585  0.42809215  0.35370431    -0.01390
C190        C  0.43167657  0.18045529  0.35244344    -0.01390
O191        O  0.49421308  0.12046821  0.66868904    -0.74200
O192        O  0.01632515  0.09345878  0.72663606    -0.53110
C193        C  0.99805970  0.11294376  0.71081699     0.79530
O194        O  0.49173884  0.99208138  0.53456323    -0.58800
O195        O  0.01980578  0.01410100  0.47927987    -0.51830
C196        C  0.49922400  0.99669836  0.49314526     0.71540
O197        O  0.49097809  0.99628685  0.68251830    -0.73360
O198        O  0.01426264  0.02363730  0.73857183    -0.53920
C199        C  0.99539759  0.00360503  0.72498196     0.77550
O200        O  0.49928345  0.11674238  0.52121241    -0.58500
O201        O  0.02226044  0.08594834  0.46767807    -0.51620
C202        C  0.00412592  0.10771901  0.47939790     0.74140
Zr203      Zr  0.01544974  0.10563149  0.59826513     2.54710
O204        O  0.46782558  0.12134655  0.59440155    -0.79070
O205        O  0.02963071  0.16275239  0.58869088    -0.92490
Zr206      Zr  0.00820675  0.00831972  0.60667683     2.64680
O207        O  0.45883207  0.01294136  0.60852865    -0.97440
O208        O  0.00768489  0.44790892  0.60689358    -0.79500
O209        O  0.00954448  0.05878371  0.64675312    -0.82860
O210        O  0.01177708  0.05526812  0.55809890    -2.17570
O211        O  0.11290880  0.11083356  0.53735590    -0.66250
O212        O  0.08739635  0.08622146  0.48027801    -0.50810
C213        C  0.10727970  0.10439838  0.49516042     0.72520
O214        O  0.09707346  0.98906590  0.68800264    -0.59160
O215        O  0.07089858  0.01557315  0.74225484    -0.51130
C216        C  0.08957967  0.99555965  0.72975759     0.74320
O217        O  0.10571732  0.98509440  0.53127177    -0.70550
O218        O  0.08550330  0.01520127  0.47433424    -0.49230
C219        C  0.10294556  0.99369094  0.48856118     0.75710
O220        O  0.10795674  0.11127290  0.68914030    -0.65880
O221        O  0.08096344  0.08551072  0.74223804    -0.53080
C222        C  0.10108748  0.10439418  0.73097478     0.74090
Zr223      Zr  0.09388867  0.09755181  0.61063010     2.77540
O224        O  0.14305212  0.09196958  0.61652868    -0.96630
O225        O  0.09589664  0.15790530  0.61129923    -0.77450
Zr226      Zr  0.08686492  0.99968935  0.60772782     2.70070
O227        O  0.13543467  0.98942026  0.61232933    -0.78700
O228        O  0.07740455  0.44038963  0.60697579    -0.97780
Zr229      Zr  0.04817537  0.05473003  0.69496799     2.21500
Zr230      Zr  0.05291397  0.05112718  0.51520343     2.11130
O231        O  0.09168956  0.04854770  0.56469152    -2.46470
O232        O  0.08988127  0.04869785  0.65388094    -0.78490
O233        O  0.05670415  0.10166993  0.55804340    -0.70690
O234        O  0.04671769  0.00372586  0.65288576    -2.31640
O235        O  0.05262426  0.10419755  0.65090907    -2.27850
O236        O  0.04802299  0.00216484  0.56049400    -0.72450
H237        H  0.49602119  0.05590371  0.53831554     0.79550
H238        H  0.04477168  0.48486662  0.67304465     0.80640
H239        H  0.10828037  0.04714349  0.54689745     0.82860
H240        H  0.05314989  0.12366139  0.67058676     0.80470
H241        H  0.01485653  0.44163481  0.63757062     0.43510
H242        H  0.06934906  0.43589396  0.57616686     0.42480
H243        H  0.14391075  0.01159878  0.60903243     0.42150
H244        H  0.14825311  0.07692974  0.59078944     0.40090
H245        H  0.08987697  0.16454743  0.58004568     0.43220
H246        H  0.04125627  0.16685118  0.61595301     0.38000
H247        H  0.45784056  0.10000113  0.59229087     0.44120
H248        H  0.45425058  0.02759266  0.58237560     0.40540
H249        H  0.15044515  0.11389709  0.60760129     0.45460
H250        H  0.51298699  0.17580677  0.59438874     0.44180
H251        H  0.45196162  0.99077768  0.59912919     0.44310
H252        H  0.09554109  0.42991608  0.60556881     0.44670
O253        O  0.50176360  0.36429098  0.01872473    -0.74200
O254        O  0.02046823  0.33327481  0.96174387    -0.53110
C255        C  0.00473923  0.35639450  0.97583866     0.79530
O256        O  0.11575836  0.36302278  0.17097568    -0.58800
O257        O  0.08902247  0.34101699  0.22786885    -0.51830
C258        C  0.10970151  0.35791412  0.21396438     0.71540
O259        O  0.09855708  0.36623239  0.01280256    -0.73360
O260        O  0.07125758  0.33966179  0.96022062    -0.53920
C261        C  0.08970379  0.36045055  0.97146787     0.77550
O262        O  0.49554880  0.35878287  0.17089962    -0.58500
O263        O  0.02468497  0.34163309  0.22708377    -0.51620
C264        C  0.00272684  0.35520305  0.21274680     0.74140
Zr265      Zr  0.01594723  0.35416191  0.09770467     2.54710
O266        O  0.02486412  0.41327732  0.10248606    -0.79070
O267        O  0.46823978  0.37014793  0.09681495    -0.92490
Zr268      Zr  0.09494473  0.35190826  0.09435737     2.64680
O269        O  0.09708283  0.41221328  0.09725653    -0.97440
O270        O  0.14391048  0.34974062  0.08370821    -0.79500
O271        O  0.05425576  0.35213030  0.05069059    -0.82860
O272        O  0.05633439  0.35564536  0.14271297    -2.17570
O273        O  0.49477259  0.25203753  0.18671065    -0.66250
O274        O  0.02567528  0.27331984  0.23745988    -0.50810
C275        C  0.00335085  0.25762528  0.22786562     0.72520
O276        O  0.10533673  0.23937580  0.01549645    -0.59160
O277        O  0.08030659  0.26724915  0.96245782    -0.51130
C278        C  0.09906832  0.24685055  0.97380479     0.74320
O279        O  0.11176886  0.24312274  0.16630158    -0.70550
O280        O  0.08948513  0.27108262  0.22402740    -0.49230
C281        C  0.10775528  0.25118055  0.20852447     0.75710
O282        O  0.49280041  0.23842419  0.04018053    -0.65880
O283        O  0.01518785  0.26447366  0.98122418    -0.53080
C284        C  0.99664779  0.24548138  0.99798915     0.74090
Zr285      Zr  0.01279128  0.25646523  0.10906572     2.77540
O286        O  0.01614595  0.19711799  0.12236840    -0.96630
O287        O  0.46333723  0.25376228  0.11093775    -0.77450
Zr288      Zr  0.09154868  0.25379646  0.09346513     2.70070
O289        O  0.08048902  0.19507333  0.09335577    -0.78700
O290        O  0.14008821  0.24333282  0.08476189    -0.97780
Zr291      Zr  0.04992674  0.30082368  0.00995107     2.21500
Zr292      Zr  0.05649476  0.30611455  0.18784010     2.11130
O293        O  0.05475896  0.25480645  0.14721722    -2.46470
O294        O  0.04949102  0.25184351  0.05507297    -0.78490
O295        O  0.01519497  0.30743300  0.14678004    -0.70690
O296        O  0.09257532  0.30243568  0.04913641    -2.31640
O297        O  0.01115148  0.30332183  0.05923971    -2.27850
O298        O  0.09501670  0.30316590  0.13819101    -0.72450
H299        H  0.05708487  0.37524402  0.16211483     0.79550
H300        H  0.10766983  0.30222276  0.02768300     0.80640
H301        H  0.05559935  0.23642564  0.16834651     0.82860
H302        H  0.49425175  0.30358266  0.04231954     0.80470
H303        H  0.14865678  0.32638983  0.08993903     0.43510
H304        H  0.14921382  0.25958897  0.10545857     0.42480
H305        H  0.07415357  0.19014320  0.06152051     0.42150
H306        H  0.02474608  0.19474460  0.15307394     0.40090
H307        H  0.45754821  0.27722611  0.11107645     0.43220
H308        H  0.45946002  0.35506762  0.07406849     0.38000
H309        H  0.04266297  0.41595048  0.08689996     0.44120
H310        H  0.09389270  0.41803774  0.13017856     0.40540
H311        H  0.49702819  0.19010942  0.12760341     0.45460
H312        H  0.46792350  0.39224844  0.08219612     0.44180
H313        H  0.11648433  0.41763147  0.09185093     0.44310
H314        H  0.14319277  0.22151749  0.09922980     0.44670
O315        O  0.35378585  0.49170732  0.01011159    -0.74200
O316        O  0.38743867  0.02001715  0.04767132    -0.53110
C317        C  0.37845812  0.00017978  0.01544899     0.79530
O318        O  0.26381421  0.10243584  0.99530987    -0.58800
O319        O  0.22888086  0.08035334  0.03790607    -0.51830
C320        C  0.23845053  0.09680843  0.00261459     0.71540
O321        O  0.35068162  0.07868768  0.00314293    -0.73360
O322        O  0.38372571  0.08972126  0.05375607    -0.53920
C323        C  0.37305688  0.09297268  0.01371601     0.77550
O324        O  0.27233589  0.48218863  0.99930072    -0.58500
O325        O  0.23600673  0.00723687  0.03462049    -0.51620
C326        C  0.24737308  0.98902802  0.00213616     0.74140
Zr327      Zr  0.31015648  0.99936545  0.04139429     2.54710
O328        O  0.31377875  0.99162877  0.95791837    -0.79070
O329        O  0.31242873  0.44017653  0.05619746    -0.92490
Zr330      Zr  0.30735429  0.09629533  0.03407032     2.64680
O331        O  0.31295914  0.11896735  0.95665536    -0.97440
O332        O  0.31429800  0.15557327  0.04629802    -0.79500
O333        O  0.33486808  0.04884035  0.03999112    -0.82860
O334        O  0.28200024  0.04641081  0.03470178    -2.17570
O335        O  0.26216265  0.49097065  0.20113793    -0.66250
O336        O  0.22673661  0.01215864  0.16143842    -0.50810
C337        C  0.23669935  0.99533970  0.19611618     0.72520
O338        O  0.34692831  0.11100715  0.20425102    -0.59160
O339        O  0.38379885  0.08926310  0.16810401    -0.51130
C340        C  0.37268553  0.10725718  0.20051099     0.74320
O341        O  0.25968195  0.11024246  0.19350228    -0.70550
O342        O  0.22611978  0.08272169  0.15362362    -0.49230
C343        C  0.23489275  0.10223109  0.18640308     0.75710
O344        O  0.35054416  0.49304525  0.20040902    -0.65880
O345        O  0.38594237  0.01639998  0.16061018    -0.53080
C346        C  0.37571874  0.99852142  0.19303387     0.74090
Zr347      Zr  0.30638182  0.00369432  0.17171753     2.77540
O348        O  0.30814252  0.00906558  0.25579249    -0.96630
O349        O  0.30655190  0.44335440  0.17409466    -0.77450
Zr350      Zr  0.30449633  0.10046835  0.16518754     2.70070
O351        O  0.29976065  0.11683086  0.24607101    -0.78700
O352        O  0.30702985  0.15830372  0.14322264    -0.97780
Zr353      Zr  0.36231053  0.05259045  0.10780023     2.21500
Zr354      Zr  0.25115006  0.04591467  0.09897186     2.11130
O355        O  0.27902855  0.05073898  0.16671441    -2.46470
O356        O  0.33199706  0.05333255  0.17229554    -0.78490
O357        O  0.27946936  0.99771390  0.10431932    -0.70690
O358        O  0.33439626  0.10151503  0.10178668    -2.31640
O359        O  0.33679825  0.00158148  0.10845720    -2.27850
O360        O  0.27702724  0.09721369  0.09796077    -0.72450
H361        H  0.27283892  0.04478789  0.00534081     0.79550
H362        H  0.34539944  0.12142766  0.10185291     0.80640
H363        H  0.26801403  0.05109218  0.19436361     0.82860
H364        H  0.34863179  0.48260023  0.10976941     0.80470
H365        H  0.33226836  0.16037353  0.03223907     0.43510
H366        H  0.28815238  0.16394160  0.13474163     0.42480
H367        H  0.30012606  0.09568324  0.26323615     0.42150
H368        H  0.29075361  0.01935728  0.26524813     0.40090
H369        H  0.28862643  0.43650736  0.16164683     0.43220
H370        H  0.31963440  0.43803216  0.08791202     0.38000
H371        H  0.31425212  0.01440698  0.94537624     0.44120
H372        H  0.30416166  0.10256894  0.93577833     0.40540
H373        H  0.30710479  0.48606711  0.26739150     0.45460
H374        H  0.32748213  0.43251910  0.03606983     0.44180
H375        H  0.30115605  0.13873611  0.95553106     0.44310
H376        H  0.31056525  0.17022937  0.17268168     0.44670
C377        C  0.30040720  0.30410817  0.09774864    -0.01390
C378        C  0.04919936  0.29828657  0.60688576    -0.01390
O379        O  0.11788438  0.23253693  0.43367576    -0.74200
O380        O  0.14592658  0.20907802  0.48672016    -0.53110
C381        C  0.12471456  0.22652746  0.47576385     0.79530
O382        O  0.12167982  0.10954463  0.26770902    -0.58800
O383        O  0.14208222  0.14213070  0.21363621    -0.51830
C384        C  0.12548689  0.11876291  0.22556964     0.71540
O385        O  0.11941004  0.11224473  0.41937550    -0.73360
O386        O  0.14465986  0.13797876  0.47585972    -0.53920
C387        C  0.12506470  0.11916044  0.46139691     0.77550
O388        O  0.12039699  0.24209593  0.28381527    -0.58500
O389        O  0.14264135  0.21471481  0.22542567    -0.51620
C390        C  0.12496181  0.23525698  0.24134390     0.74140
Zr391      Zr  0.13698090  0.22371259  0.35617474     2.54710
O392        O  0.08761796  0.22752335  0.35558159    -0.79070
O393        O  0.14392264  0.28334817  0.36415512    -0.92490
Zr394      Zr  0.13681979  0.12587070  0.34544330     2.64680
O395        O  0.08728537  0.12401046  0.34549740    -0.97440
O396        O  0.14182822  0.06598384  0.34372287    -0.79500
O397        O  0.13750923  0.17317953  0.39538163    -0.82860
O398        O  0.13499059  0.17635501  0.30596394    -2.17570
O399        O  0.22925217  0.24225608  0.26810269    -0.66250
O400        O  0.20530735  0.21295531  0.21384424    -0.50810
C401        C  0.22329702  0.23486576  0.22592867     0.72520
O402        O  0.23257763  0.10911453  0.42516686    -0.59160
O403        O  0.21018888  0.13820459  0.48170542    -0.51130
C404        C  0.22816996  0.11674929  0.46843271     0.74320
O405        O  0.22431728  0.11010086  0.26421367    -0.70550
O406        O  0.19920610  0.13747652  0.21004976    -0.49230
C407        C  0.21715414  0.11629974  0.22202041     0.75710
O408        O  0.23627575  0.23722810  0.41868312    -0.65880
O409        O  0.21243900  0.21034044  0.47547541    -0.53080
C410        C  0.23149494  0.22999742  0.46094622     0.74090
Zr411      Zr  0.21643208  0.22352664  0.34547126     2.77540
O412        O  0.26590156  0.22339352  0.34069389    -0.96630
O413        O  0.21234319  0.28353982  0.34750692    -0.77450
Zr414      Zr  0.21627487  0.12509113  0.34607300     2.70070
O415        O  0.26562547  0.12629151  0.34014240    -0.78700
O416        O  0.21459518  0.06474248  0.34701647    -0.97780
Zr417      Zr  0.17812602  0.17412043  0.43979389     2.21500
Zr418      Zr  0.17448692  0.17631850  0.25794754     2.11130
O419        O  0.21612903  0.17438833  0.30052907    -2.46470
O420        O  0.21720991  0.17444859  0.39063828    -0.78490
O421        O  0.17503815  0.22521340  0.30480375    -0.70690
O422        O  0.17663937  0.12467300  0.39255320    -2.31640
O423        O  0.17833343  0.22453369  0.39715249    -2.27850
O424        O  0.17626522  0.12572878  0.30001147    -0.72450
H425        H  0.11855035  0.17666607  0.28778724     0.79550
H426        H  0.17644385  0.10510395  0.41162484     0.80640
H427        H  0.23154365  0.17438379  0.27973301     0.82860
H428        H  0.17914982  0.24357977  0.41758618     0.80470
H429        H  0.15112829  0.06112193  0.31401666     0.43510
H430        H  0.20397740  0.05841648  0.31921652     0.42480
H431        H  0.27099254  0.14770626  0.35448732     0.42150
H432        H  0.27022198  0.20993136  0.31285696     0.40090
H433        H  0.19885799  0.28867013  0.32325144     0.43220
H434        H  0.14411595  0.28767015  0.39794095     0.38000
H435        H  0.08124493  0.20419796  0.35575108     0.44120
H436        H  0.08171843  0.13848574  0.31972170     0.40540
H437        H  0.27094802  0.24634621  0.33215707     0.45460
H438        H  0.12668431  0.29319396  0.35343514     0.44180
H439        H  0.08257473  0.10128797  0.33495644     0.44310
H440        H  0.23340810  0.05782567  0.33967832     0.44670
O441        O  0.35873665  0.23574587  0.67312432    -0.74200
O442        O  0.33645855  0.26312461  0.73145962    -0.53110
C443        C  0.35463166  0.24331358  0.71541599     0.79530
O444        O  0.36209110  0.36355540  0.53919713    -0.58800
O445        O  0.33566890  0.33967724  0.48262083    -0.51830
C446        C  0.35573153  0.35789962  0.49708407     0.71540
O447        O  0.35936515  0.36435039  0.69125493    -0.73360
O448        O  0.33644687  0.33367151  0.74486309    -0.53920
C449        C  0.35415098  0.35596272  0.73344139     0.77550
O450        O  0.35555298  0.23563959  0.52399404    -0.58500
O451        O  0.33408794  0.26775485  0.47093681    -0.51620
C452        C  0.35180048  0.24538876  0.48216517     0.74140
Zr453      Zr  0.33866449  0.24943299  0.60168516     2.54710
O454        O  0.38688720  0.23658017  0.59719513    -0.79070
O455        O  0.32500569  0.19135219  0.59959955    -0.92490
Zr456      Zr  0.34517905  0.34718360  0.61267526     2.64680
O457        O  0.39417506  0.33942533  0.61708321    -0.97440
O458        O  0.34676466  0.40750021  0.61241300    -0.79500
O459        O  0.34298946  0.29659493  0.65198306    -0.82860
O460        O  0.34221339  0.29989852  0.56255059    -2.17570
O461        O  0.24338285  0.23966334  0.53745407    -0.66250
O462        O  0.26820246  0.26563182  0.48088124    -0.50810
C463        C  0.24899285  0.24605616  0.49518547     0.72520
O464        O  0.25695983  0.37015223  0.68978717    -0.59160
O465        O  0.28007211  0.34148641  0.74527363    -0.51130
C466        C  0.26335281  0.36371186  0.73208848     0.74320
O467        O  0.24813763  0.36886469  0.53175610    -0.70550
O468        O  0.26983488  0.33906597  0.47526008    -0.49230
C469        C  0.25203900  0.36074466  0.48873998     0.75710
O470        O  0.24563897  0.24136986  0.69018545    -0.65880
O471        O  0.27160563  0.26547354  0.74598402    -0.53080
C472        C  0.25197080  0.24590775  0.73305807     0.74090
Zr473      Zr  0.25990132  0.25647231  0.61186175     2.77540
O474        O  0.21077731  0.26368133  0.61457103    -0.96630
O475        O  0.25693829  0.19630996  0.61430925    -0.77450
Zr476      Zr  0.26550542  0.35370890  0.60962859     2.70070
O477        O  0.21625750  0.35620066  0.61669841    -0.78700
O478        O  0.26916671  0.41331095  0.60191731    -0.97780
Zr479      Zr  0.30359673  0.30042399  0.69986696     2.21500
Zr480      Zr  0.30182141  0.30270510  0.51722345     2.11130
O481        O  0.26214461  0.30478150  0.56534532    -2.46470
O482        O  0.26248947  0.30539578  0.65656023    -0.78490
O483        O  0.29792414  0.25254544  0.56014724    -0.70690
O484        O  0.30524469  0.35068283  0.65635941    -2.31640
O485        O  0.30073974  0.25123117  0.65333034    -2.27850
O486        O  0.30569254  0.35151223  0.56483589    -0.72450
H487        H  0.35823876  0.29911526  0.54322115     0.79550
H488        H  0.30684203  0.37000702  0.67610503     0.80640
H489        H  0.24590440  0.30569587  0.54672890     0.82860
H490        H  0.30027733  0.23173189  0.67250991     0.80470
H491        H  0.32795798  0.41440304  0.61977831     0.43510
H492        H  0.27786550  0.41659070  0.57132236     0.42480
H493        H  0.21116269  0.33554558  0.63292912     0.42150
H494        H  0.20629255  0.27641375  0.58647137     0.40090
H495        H  0.26990950  0.18957442  0.63856534     0.43220
H496        H  0.32709747  0.18366485  0.63184722     0.38000
H497        H  0.39608069  0.25848281  0.59769680     0.44120
H498        H  0.39882106  0.32578253  0.58957341     0.40540
H499        H  0.20321208  0.24125717  0.60862277     0.45460
H500        H  0.33970039  0.18013782  0.58214146     0.44180
H501        H  0.40202300  0.36154742  0.61044834     0.44310
H502        H  0.25022885  0.42089122  0.59776779     0.44670
C503        C  0.30207547  0.04812274  0.60316031    -0.01390
C504        C  0.05038103  0.04636888  0.09539656    -0.01390
C505        C  0.08076696  0.10067929  0.11964205     0.24690
C506        C  0.07332214  0.06628529  0.12485100    -0.23420
C507        C  0.08941570  0.04969116  0.15860535     0.19600
C508        C  0.10567454  0.06662163  0.19105727     0.24630
C509        C  0.10936324  0.10089983  0.18902942    -0.23360
C510        C  0.09780290  0.11740251  0.15165719     0.19530
F511        F  0.10290334  0.15017091  0.14621941    -0.13320
F512        F  0.07343441  0.11879271  0.08245287    -0.15680
F513        F  0.11916859  0.04882964  0.22336729    -0.15690
F514        F  0.09189917  0.01665401  0.15914610    -0.13320
C515        C  0.25806379  0.11791641  0.54136054     0.24690
C516        C  0.24513422  0.09977868  0.50550356    -0.23420
C517        C  0.24851693  0.06517181  0.50571413     0.19600
C518        C  0.26485955  0.04945527  0.53927921     0.24630
C519        C  0.28022951  0.06767181  0.57290247    -0.23360
C520        C  0.27511468  0.10239752  0.57449647     0.19530
F521        F  0.28578207  0.12171215  0.60852072    -0.13320
F522        F  0.25491138  0.15124332  0.54339731    -0.15680
F523        F  0.26709754  0.01596352  0.53687907    -0.15690
F524        F  0.23578830  0.04621312  0.47325085    -0.13320
C525        C  0.06029605  0.25433816  0.54182204     0.24690
C526        C  0.07002120  0.27777863  0.57502665    -0.23420
C527        C  0.09886842  0.28342659  0.57401617     0.19600
C528        C  0.11651552  0.26491837  0.54490484     0.24630
C529        C  0.10648667  0.24158823  0.51283973    -0.23360
C530        C  0.07801329  0.23697507  0.51145670     0.19530
F531        F  0.06709488  0.21564740  0.47992760    -0.13320
F532        F  0.03323396  0.24831096  0.53808858    -0.15680
F533        F  0.14355791  0.27182947  0.54568960    -0.15690
F534        F  0.11057226  0.30854801  0.59832330    -0.13320
C535        C  0.23534475  0.28343983  0.17446967     0.24690
C536        C  0.24023261  0.25114999  0.18960671    -0.23420
C537        C  0.26391766  0.23557412  0.17473545     0.19600
C538        C  0.28269584  0.25146720  0.14545326     0.24630
C539        C  0.27881878  0.28474240  0.12974503    -0.23360
C540        C  0.25387426  0.29975024  0.14478071     0.19530
F541        F  0.24748568  0.33104784  0.13179033    -0.13320
F542        F  0.21281656  0.29966520  0.18931615    -0.15680
F543        F  0.30472684  0.23332423  0.13412449    -0.15690
F544        F  0.26950638  0.20485756  0.19071871    -0.13320
C545        C  0.38871710  0.16629331  0.30153143     0.24690
C546        C  0.41628630  0.16009276  0.31305249    -0.23420
C547        C  0.43039074  0.13838815  0.28195071     0.19600
C548        C  0.41687162  0.12097170  0.24565430     0.24630
C549        C  0.38901314  0.12589290  0.23709414    -0.23360
C550        C  0.37567620  0.14976397  0.26512219     0.19530
F551        F  0.34960107  0.15874706  0.25658757    -0.13320
F552        F  0.37404660  0.19054800  0.32237772    -0.15680
F553        F  0.43120241  0.09944756  0.21892554    -0.15690
F554        F  0.45751347  0.13368901  0.28675303    -0.13320
C555        C  0.45789103  0.24692265  0.26471976     0.24690
C556        C  0.48629356  0.24321126  0.26534081    -0.23420
C557        C  0.99736746  0.21977057  0.29497306     0.19600
C558        C  0.48057026  0.19951224  0.32219877     0.24630
C559        C  0.45161309  0.20389338  0.32421323    -0.23360
C560        C  0.44092498  0.22786502  0.29353014     0.19530
F561        F  0.41371576  0.23249411  0.29037073    -0.13320
F562        F  0.44637550  0.26861432  0.23499443    -0.15680
F563        F  0.49320984  0.17339516  0.34178464    -0.15690
F564        F  0.02450328  0.21373004  0.29371231    -0.13320
C565        C  0.46955680  0.10696822  0.41435520     0.24690
C566        C  0.48698309  0.12463017  0.44425257    -0.23420
C567        C  0.48374781  0.15911359  0.44781430     0.19600
C568        C  0.46482462  0.17579230  0.42062511     0.24630
C569        C  0.44878709  0.15890297  0.38692033    -0.23360
C570        C  0.45029962  0.12363243  0.38679779     0.19530
F571        F  0.43238687  0.10474720  0.36255096    -0.13320
F572        F  0.96992344  0.07334736  0.41410266    -0.15680
F573        F  0.46370497  0.20926883  0.42501055    -0.15690
F574        F  0.49920214  0.17701246  0.47799061    -0.13320
C575        C  0.40993797  0.23400932  0.39397480     0.24690
C576        C  0.41060151  0.19913589  0.38575760    -0.23420
C577        C  0.39116461  0.18023272  0.41123258     0.19600
C578        C  0.37159685  0.19526149  0.44051318     0.24630
C579        C  0.37017932  0.22994076  0.44587411    -0.23360
C580        C  0.38984916  0.24897823  0.42245490     0.19530
F581        F  0.39092074  0.28222365  0.42985718    -0.13320
F582        F  0.42979458  0.25395821  0.37769812    -0.15680
F583        F  0.35393118  0.17561238  0.46406506    -0.15690
F584        F  0.39078728  0.14669906  0.40720725    -0.13320
C585        C  0.11447701  0.39091839  0.28653894     0.24690
C586        C  0.12695214  0.37334868  0.25057139    -0.23420
C587        C  0.15539255  0.37090664  0.25041773     0.19600
C588        C  0.17104360  0.38602869  0.28562590     0.24630
C589        C  0.15888087  0.40525049  0.32173093    -0.23360
C590        C  0.12978756  0.40746774  0.32029808     0.19530
F591        F  0.11522041  0.42798775  0.34798091    -0.13320
F592        F  0.08700150  0.39430328  0.28716158    -0.15680
F593        F  0.19847541  0.38304444  0.28308281    -0.15690
F594        F  0.16812739  0.35373124  0.21616522    -0.13320
C595        C  0.17867811  0.46896829  0.28204526     0.24690
C596        C  0.19303119  0.45050508  0.31653237    -0.23420
C597        C  0.22141882  0.44779351  0.30879148     0.19600
C598        C  0.23424607  0.46162718  0.27022161     0.24630
C599        C  0.22016220  0.47991308  0.23585461    -0.23360
C600        C  0.19196600  0.48352812  0.24299945     0.19530
F601        F  0.17699695  0.50053223  0.21188260    -0.13320
F602        F  0.15127533  0.47200288  0.28509718    -0.15680
F603        F  0.26126136  0.45533338  0.26660652    -0.15690
F604        F  0.23769489  0.42920232  0.33580721    -0.13320
C605        C  0.13655536  0.99710407  0.42205888     0.24690
C606        C  0.12177369  0.47796061  0.45407101    -0.23420
C607        C  0.12681308  0.44384621  0.45552353     0.19600
C608        C  0.14484552  0.42887593  0.42413236     0.24630
C609        C  0.15897170  0.44745628  0.38959843    -0.23360
C610        C  0.15535506  0.48238779  0.39107790     0.19530
F611        F  0.17046330  0.00286354  0.36428912    -0.13320
F612        F  0.13377194  0.03052309  0.42249270    -0.15680
F613        F  0.14719892  0.39540157  0.42578715    -0.15690
F614        F  0.11354316  0.42454172  0.48669892    -0.13320
C615        C  0.23121663  0.41182126  0.45170681     0.24690
C616        C  0.23425458  0.37720326  0.45275010    -0.23420
C617        C  0.21861177  0.35839256  0.42118653     0.19600
C618        C  0.20039565  0.37349895  0.38969787     0.24630
C619        C  0.19795382  0.40868794  0.38676550    -0.23360
C620        C  0.21387884  0.42718092  0.41940052     0.19530
F621        F  0.21281072  0.46079583  0.41985043    -0.13320
F622        F  0.24539208  0.43114101  0.48194981    -0.15680
F623        F  0.18424757  0.35298307  0.36449743    -0.15690
F624        F  0.21969676  0.32484361  0.42285743    -0.13320
C625        C  0.12225059  0.15442012  0.76580631     0.24690
C626        C  0.11772968  0.12028682  0.76767034    -0.23420
C627        C  0.13136963  0.10179014  0.80127567     0.19600
C628        C  0.15035771  0.11706360  0.83132837     0.24630
C629        C  0.15617319  0.15158142  0.82837277    -0.23360
C630        C  0.14078485  0.16980231  0.79543199     0.19530
F631        F  0.14424267  0.20302086  0.79087755    -0.13320
F632        F  0.10859029  0.17315566  0.73477497    -0.15680
F633        F  0.16173285  0.09800521  0.86418178    -0.15690
F634        F  0.12663878  0.06871127  0.80436814    -0.13320
C635        C  0.15286549  0.22944009  0.88309395     0.24690
C636        C  0.15486551  0.19436871  0.88631276    -0.23420
C637        C  0.13445597  0.17790331  0.91311346     0.19600
C638        C  0.11513055  0.19530324  0.93825564     0.24630
C639        C  0.11485070  0.22976364  0.93772071    -0.23360
C640        C  0.13316842  0.24680047  0.90904298     0.19530
F641        F  0.13259990  0.28038095  0.90757291    -0.13320
F642        F  0.16903234  0.24727827  0.85450311    -0.15680
F643        F  0.09727166  0.17830496  0.96526315    -0.15690
F644        F  0.13422314  0.14444607  0.91762025    -0.13320
C645        C  0.21031590  0.12565546  0.88597055     0.24690
C646        C  0.19221679  0.15138582  0.89876086    -0.23420
C647        C  0.19103557  0.15875800  0.94753155     0.19600
C648        C  0.20327384  0.13841140  0.98074251     0.24630
C649        C  0.21997709  0.11212668  0.96755522    -0.23360
C650        C  0.22411312  0.10677482  0.91961113     0.19530
F651        F  0.24209838  0.08346794  0.90516347    -0.13320
F652        F  0.21490992  0.11878797  0.84057349    -0.15680
F653        F  0.20092604  0.14664561  0.02626214    -0.15690
F654        F  0.18003520  0.18717163  0.96431934    -0.13320
C655        C  0.20246883  0.18093166  0.78159437     0.24690
C656        C  0.19822869  0.19007654  0.82893924    -0.23420
C657        C  0.21642524  0.21481574  0.84616040     0.19600
C658        C  0.23424892  0.23282980  0.81621986     0.24630
C659        C  0.23509239  0.22625946  0.76797102    -0.23360
C660        C  0.21924441  0.19927321  0.75200967     0.19530
F661        F  0.22032389  0.18933366  0.70698901    -0.13320
F662        F  0.19156669  0.15295214  0.76279978    -0.15680
F663        F  0.25034181  0.25695127  0.83457926    -0.15690
F664        F  0.21652133  0.22224513  0.89205815    -0.13320
C665        C  0.06110744  0.35467161  0.65259987     0.24690
C666        C  0.06476848  0.32000225  0.64436148    -0.23420
C667        C  0.08079643  0.30298746  0.67750579     0.19600
C668        C  0.09298045  0.31932409  0.71499743     0.24630
C669        C  0.08970845  0.35346266  0.72215115    -0.23360
C670        C  0.07353770  0.37094209  0.69073372     0.19530
F671        F  0.07031309  0.40412971  0.69622416    -0.13320
F672        F  0.04448758  0.37309317  0.62599626    -0.15680
F673        F  0.10853845  0.30150581  0.74444842    -0.15690
F674        F  0.08499581  0.26987664  0.67342236    -0.13320
C675        C  0.05705802  0.49386621  0.03766931     0.24690
C676        C  0.06446646  0.02667713  0.05373997    -0.23420
C677        C  0.08114169  0.04484466  0.02255601     0.19600
C678        C  0.08997266  0.03177126  0.98037333     0.24630
C679        C  0.08427803  0.49891665  0.96742930    -0.23360
C680        C  0.06764071  0.48015953  0.99646156     0.19530
F681        F  0.06177985  0.44813297  0.98537985    -0.13320
F682        F  0.03756731  0.47520763  0.05806152    -0.15680
F683        F  0.10550427  0.05130168  0.95254229    -0.15690
F684        F  0.08877705  0.07631794  0.03119652    -0.13320
C685        C  0.28498288  0.36988201  0.99841048     0.24690
C686        C  0.25987827  0.35902489  0.98144194    -0.23420
C687        C  0.24802412  0.33102911  0.00262802     0.19600
C688        C  0.25995618  0.31536195  0.04025145     0.24630
C689        C  0.28552152  0.32562841  0.05883828    -0.23360
C690        C  0.29750007  0.35389655  0.03629008     0.19530
F691        F  0.32093718  0.36780595  0.05076687    -0.13320
F692        F  0.29723654  0.39667059  0.97913528    -0.15680
F693        F  0.24666901  0.28790384  0.05546192    -0.15690
F694        F  0.22444367  0.31772190  0.98629922    -0.13320
C695        C  0.26793701  0.04314745  0.67049716     0.24690
C696        C  0.28353964  0.02615259  0.63618531    -0.23420
C697        C  0.28457521  0.49109928  0.64069801     0.19600
C698        C  0.27452801  0.47509225  0.68127326     0.24630
C699        C  0.26190538  0.49316935  0.71737227    -0.23360
C700        C  0.25789811  0.02716512  0.71007875     0.19530
F701        F  0.24366646  0.04523947  0.74165603    -0.13320
F702        F  0.26446818  0.07640617  0.66816190    -0.15680
F703        F  0.27671480  0.44176213  0.68511547    -0.15690
F704        F  0.29516861  0.47219911  0.60634764    -0.13320
C705        C  0.34528000  0.07298224  0.71228616     0.24690
C706        C  0.35807481  0.10251129  0.69967849    -0.23420
C707        C  0.35457466  0.11357569  0.65379547     0.19600
C708        C  0.33695070  0.09655560  0.62272397     0.24630
C709        C  0.32157746  0.06844309  0.63695450    -0.23360
C710        C  0.32850825  0.05590594  0.68182621     0.19530
F711        F  0.32082524  0.02561313  0.69714508    -0.13320
F712        F  0.35010145  0.05896108  0.75411089    -0.15680
F713        F  0.33536847  0.10749891  0.57856530    -0.15690
F714        F  0.36828632  0.14073664  0.63879930    -0.13320
C715        C  0.50518341  0.11969491  0.04856070     0.24690
C716        C  0.49219086  0.10360583  0.01172816    -0.23420
C717        C  0.49414353  0.06936434  0.00767320     0.19600
C718        C  0.01063615  0.05181458  0.03734735     0.24630
C719        C  0.02852043  0.06797593  0.06920211    -0.23360
C720        C  0.02226346  0.10196637  0.07823601     0.19530
F721        F  0.02897516  0.11698762  0.11887332    -0.13320
F722        F  0.50115352  0.15249097  0.05591271    -0.15680
F723        F  0.00710652  0.01869752  0.03658387    -0.15690
F724        F  0.47904090  0.05246088  0.97586681    -0.13320
C725        C  0.34389951  0.26555575  0.09028967     0.24690
C726        C  0.31874914  0.27749077  0.07181669    -0.23420
C727        C  0.31069267  0.26232837  0.02942429     0.19600
C728        C  0.32874343  0.24404107  0.00270441     0.24630
C729        C  0.35554086  0.23887526  0.01711322    -0.23360
C730        C  0.36244796  0.24772861  0.06256303     0.19530
F731        F  0.38722322  0.24000924  0.07983318    -0.13320
F732        F  0.35057416  0.27082733  0.13536538    -0.15680
F733        F  0.31962758  0.23112179  0.96196320    -0.15690
F734        F  0.28515656  0.26332842  0.01302210    -0.13320
C735        C  0.49201809  0.27790364  0.69479930     0.24690
C736        C  0.49240547  0.24345809  0.69787935    -0.23420
C737        C  0.01263751  0.22584776  0.67395498     0.19600
C738        C  0.03150030  0.24244978  0.64519851     0.24630
C739        C  0.03018338  0.27726337  0.63932809    -0.23360
C740        C  0.51056043  0.29455091  0.66677798     0.19530
F741        F  0.50835538  0.32801513  0.66493385    -0.13320
F742        F  0.47373440  0.29573708  0.71986201    -0.15680
F743        F  0.05209746  0.22470335  0.62655239    -0.15690
F744        F  0.01527079  0.19286971  0.68129673    -0.13320
C745        C  0.32913909  0.35684724  0.20273708     0.24690
C746        C  0.35667382  0.36086516  0.19144336    -0.23420
C747        C  0.36504493  0.35152321  0.14688115     0.19600
C748        C  0.34677224  0.33607284  0.11593950     0.24630
C749        C  0.31932547  0.32768543  0.12902960    -0.23360
C750        C  0.31099460  0.34083697  0.17277729     0.19530
F751        F  0.28521938  0.33961097  0.18826541    -0.13320
F752        F  0.31927963  0.36885001  0.24348748    -0.15680
F753        F  0.35671020  0.32850038  0.07321387    -0.15690
F754        F  0.39127682  0.35611392  0.13352691    -0.13320
C755        C  0.49277444  0.01729845  0.18006424     0.24690
C756        C  0.50067521  0.48567266  0.19239294    -0.23420
C757        C  0.02534260  0.47330290  0.17623357     0.19600
C758        C  0.04127196  0.49168077  0.14515764     0.24630
C759        C  0.03343440  0.02418155  0.13057112    -0.23360
C760        C  0.50917684  0.03672211  0.15181665     0.19530
F761        F  0.50079395  0.06828932  0.14733353    -0.13320
F762        F  0.46945969  0.03031870  0.19764890    -0.15680
F763        F  0.06371460  0.47617095  0.12861694    -0.15690
F764        F  0.03419832  0.44335499  0.19090069    -0.13320
C765        C  0.48512839  0.32983640  0.53837983     0.24690
C766        C  0.49580286  0.35556694  0.51203051    -0.23420
C767        C  0.02411963  0.36124743  0.51332835     0.19600
C768        C  0.04107128  0.34289744  0.54304018     0.24630
C769        C  0.03028531  0.31799806  0.57232529    -0.23360
C770        C  0.50200428  0.31020722  0.56558704     0.19530
F771        F  0.49034599  0.28199113  0.58172374    -0.13320
F772        F  0.45838828  0.32163703  0.53457498    -0.15680
F773        F  0.06814524  0.34958062  0.54322297    -0.15690
F774        F  0.03546182  0.38436462  0.48522914    -0.13320
C775        C  0.34563801  0.02744288  0.49170839     0.24690
C776        C  0.36206427  0.50078944  0.50502579    -0.23420
C777        C  0.36016052  0.49068287  0.55162285     0.19600
C778        C  0.34154261  0.50562808  0.58284597     0.24630
C779        C  0.32273929  0.03024957  0.56844978    -0.23360
C780        C  0.32722293  0.04230525  0.52249216     0.19530
F781        F  0.31546388  0.07037651  0.50684152    -0.13320
F782        F  0.34794311  0.04054922  0.44868085    -0.15680
F783        F  0.34256564  0.49593649  0.62756174    -0.15690
F784        F  0.37648762  0.46631974  0.56754766    -0.13320
C785        C  0.39878354  0.43377617  0.93325732     0.24690
C786        C  0.41112986  0.45119338  0.89621496    -0.23420
C787        C  0.41156217  0.48637430  0.89949369     0.19600
C788        C  0.40437223  0.00258410  0.94118680     0.24630
C789        C  0.39564857  0.48435889  0.97984862    -0.23360
C790        C  0.39245533  0.44983999  0.97476127     0.19530
F791        F  0.38189705  0.43163950  0.00997626    -0.13320
F792        F  0.39591398  0.40029212  0.93143044    -0.15680
F793        F  0.40445904  0.03620009  0.94298227    -0.15690
F794        F  0.41828090  0.00535977  0.86265731    -0.13320
C795        C  0.44203823  0.44604640  0.77528365     0.24690
C796        C  0.44422313  0.45113389  0.82398172    -0.23420
C797        C  0.46495066  0.47379090  0.83866725     0.19600
C798        C  0.98142154  0.49077723  0.80708675     0.24630
C799        C  0.47752905  0.98688120  0.75936649    -0.23360
C800        C  0.45707951  0.96482883  0.74415283     0.19530
F801        F  0.45207461  0.95977427  0.69837548    -0.13320
F802        F  0.42719746  0.42123467  0.75589651    -0.15680
F803        F  0.00147956  0.51079819  0.82373387    -0.15690
F804        F  0.96981544  0.47991741  0.88393390    -0.13320
C805        C  0.38375733  0.42455821  0.81057598     0.24690
C806        C  0.40506095  0.40823975  0.83479711    -0.23420
C807        C  0.40496466  0.37297980  0.83131711     0.19600
C808        C  0.38870990  0.35628903  0.79808663     0.24630
C809        C  0.36980900  0.37334276  0.77107608    -0.23360
C810        C  0.36673312  0.40743931  0.77916472     0.19530
F811        F  0.34778140  0.42457454  0.75525167    -0.13320
F812        F  0.38092325  0.45792145  0.81406370    -0.15680
F813        F  0.39244433  0.32346559  0.79033511    -0.15690
F814        F  0.41979078  0.35402867  0.86013427    -0.13320
C815        C  0.45857560  0.42255510  0.93312996     0.24690
C816        C  0.45012027  0.41133588  0.88820113    -0.23420
C817        C  0.46638575  0.38596789  0.86822568     0.19600
C818        C  0.48450315  0.36748863  0.89574319     0.24630
C819        C  0.48870298  0.37619424  0.94258455    -0.23360
C820        C  0.47710070  0.40550938  0.95904911     0.19530
F821        F  0.48410792  0.41892918  0.00073620    -0.13320
F822        F  0.45085250  0.45167301  0.95269573    -0.15680
F823        F  0.99779810  0.34137504  0.87655704    -0.15690
F824        F  0.46426773  0.37845144  0.82247808    -0.13320
C825        C  0.42755404  0.93025475  0.86014197    -0.01390
O826        O  0.48960049  0.98553214  0.41796408    -0.74200
O827        O  0.46246274  0.96257301  0.47390356    -0.53110
C828        C  0.48257317  0.98060143  0.45955489     0.79530
O829        O  0.38544318  0.99035540  0.26908033    -0.58800
O830        O  0.40949113  0.96133470  0.21444593    -0.51830
C831        C  0.39238576  0.98336545  0.22720453     0.71540
O832        O  0.37706763  0.99138369  0.42681297    -0.73360
O833        O  0.39820691  0.96275224  0.48380644    -0.53920
C834        C  0.38050771  0.98402430  0.46993450     0.77550
O835        O  0.49113301  0.97663828  0.27003925    -0.58500
O836        O  0.46523384  0.94973749  0.21606983    -0.51620
C837        C  0.48500555  0.96881473  0.22827230     0.74140
Zr838      Zr  0.47359606  0.96637584  0.34681830     2.54710
O839        O  0.47756326  0.52627260  0.33959576    -0.79070
O840        O  0.02252377  0.95715551  0.34716392    -0.92490
Zr841      Zr  0.39456745  0.97704422  0.34897846     2.64680
O842        O  0.40281700  0.53660656  0.35190967    -0.97440
O843        O  0.34587403  0.98635496  0.34305192    -0.79500
O844        O  0.43416872  0.97381575  0.39415390    -0.82860
O845        O  0.43428861  0.97151707  0.30271005    -2.17570
O846        O  0.49054014  0.86591558  0.28797734    -0.66250
O847        O  0.46193058  0.88034656  0.22970288    -0.50810
C848        C  0.48385852  0.86768043  0.24560717     0.72520
O849        O  0.36771276  0.86595485  0.42097971    -0.59160
O850        O  0.39339635  0.89132759  0.47715132    -0.51130
C851        C  0.37342089  0.87287653  0.46298438     0.74320
O852        O  0.36936297  0.86843257  0.26963760    -0.70550
O853        O  0.39746256  0.88998953  0.21490384    -0.49230
C854        C  0.37591668  0.87395145  0.22725073     0.75710
O855        O  0.48368996  0.86180444  0.43417128    -0.65880
O856        O  0.45891622  0.89058248  0.48762406    -0.53080
C857        C  0.47840381  0.87071556  0.47595712     0.74090
Zr858      Zr  0.46485817  0.86959347  0.35715856     2.77540
O859        O  0.45002367  0.81237346  0.35169158    -0.96630
O860        O  0.00852734  0.84178595  0.36305971    -0.77450
Zr861      Zr  0.38614483  0.87929244  0.34747509     2.70070
O862        O  0.38286416  0.81903781  0.34471156    -0.78700
O863        O  0.33699101  0.88607808  0.34985257    -0.97780
Zr864      Zr  0.42853805  0.92540272  0.44060911     2.21500
Zr865      Zr  0.43116025  0.92041796  0.26105599     2.11130
O866        O  0.42684837  0.87131032  0.30604257    -2.46470
O867        O  0.42397693  0.87436408  0.39888670    -0.78490
O868        O  0.47044056  0.91593487  0.30772817    -0.70690
O869        O  0.38932480  0.92854018  0.39259493    -2.31640
O870        O  0.46941409  0.92022768  0.39685997    -2.27850
O871        O  0.39007543  0.92783411  0.30341338    -0.72450
H872        H  0.43661196  0.99022412  0.28239267     0.79550
H873        H  0.37295450  0.93030318  0.41092476     0.80640
H874        H  0.42584497  0.85183851  0.28644917     0.82860
H875        H  0.48534716  0.92011012  0.41623190     0.80470
H876        H  0.33745848  0.96565296  0.35462905     0.43510
H877        H  0.33301262  0.90239913  0.32539986     0.42480
H878        H  0.39183226  0.81236691  0.31539784     0.42150
H879        H  0.45371947  0.80611803  0.31910028     0.40090
H880        H  0.02210358  0.85994810  0.36555778     0.43220
H881        H  0.02605358  0.94403297  0.37531263     0.38000
H882        H  0.45871585  0.53403146  0.33514568     0.44120
H883        H  0.40683927  0.54287102  0.31951646     0.40540
H884        H  0.46389702  0.80027728  0.36955869     0.45460
H885        H  0.03063775  0.97919700  0.35381466     0.44180
H886        H  0.38475392  0.54633309  0.35835048     0.44310
H887        H  0.32952718  0.86483582  0.33793688     0.44670
O888        O  0.48245531  0.73860294  0.92445985    -0.74200
O889        O  0.45947948  0.71195937  0.98222503    -0.53110
C890        C  0.47814805  0.73114874  0.96640223     0.79530
O891        O  0.36755521  0.73565726  0.79018074    -0.58800
O892        O  0.39109646  0.70913045  0.73255317    -0.51830
C893        C  0.37229526  0.72829250  0.74802022     0.71540
O894        O  0.36991600  0.73287290  0.94060643    -0.73360
O895        O  0.39517475  0.70717711  0.99511230    -0.53920
C896        C  0.37516168  0.72550710  0.98271804     0.77550
O897        O  0.48102586  0.73574549  0.77533719    -0.58500
O898        O  0.45592392  0.70765566  0.72157737    -0.51620
C899        C  0.47533229  0.72755357  0.73352633     0.74140
Zr900      Zr  0.46440995  0.72431066  0.85232289     2.54710
O901        O  0.45865738  0.78417708  0.85007354    -0.79070
O902        O  0.01371277  0.72962243  0.84659703    -0.92490
Zr903      Zr  0.38560509  0.72203004  0.86295946     2.64680
O904        O  0.38801212  0.78171481  0.87310184    -0.97440
O905        O  0.33617791  0.72418725  0.86257497    -0.79500
O906        O  0.42659055  0.72548484  0.90393268    -0.82860
O907        O  0.42348480  0.72473799  0.81133533    -2.17570
O908        O  0.48632394  0.62215132  0.78565554    -0.66250
O909        O  0.45805708  0.64093869  0.72918963    -0.50810
C910        C  0.47963917  0.62658567  0.74370988     0.72520
O911        O  0.37808324  0.60653591  0.93649732    -0.59160
O912        O  0.40330969  0.63443708  0.99084755    -0.51130
C913        C  0.38601860  0.61237349  0.97823067     0.74320
O914        O  0.36997944  0.61380901  0.77802933    -0.70550
O915        O  0.39427439  0.63975035  0.72170933    -0.49230
C916        C  0.37520781  0.62009133  0.73506496     0.75710
O917        O  0.48026929  0.61267054  0.93498103    -0.65880
O918        O  0.45925088  0.64347430  0.99073127    -0.53080
C919        C  0.47626606  0.62141715  0.97723070     0.74090
Zr920      Zr  0.46471505  0.62599177  0.85807287     2.77540
O921        O  0.45608738  0.56680167  0.84967476    -0.96630
O922        O  0.01300292  0.61374183  0.86320704    -0.77450
Zr923      Zr  0.38585010  0.62439060  0.85751552     2.70070
O924        O  0.38617274  0.56422266  0.85141790    -0.78700
O925        O  0.33652311  0.62346739  0.86324889    -0.97780
Zr926      Zr  0.42698861  0.67546310  0.94699741     2.21500
Zr927      Zr  0.42442790  0.67423173  0.76802301     2.11130
O928        O  0.42532313  0.62378397  0.81101165    -2.46470
O929        O  0.42561589  0.62493525  0.90380208    -0.78490
O930        O  0.46491716  0.67420542  0.81162265    -0.70690
O931        O  0.38538029  0.67259745  0.90512502    -2.31640
O932        O  0.46649937  0.67608828  0.89924183    -2.27850
O933        O  0.38485161  0.67385093  0.81555859    -0.72450
H934        H  0.42271890  0.74393687  0.79160421     0.79550
H935        H  0.36982161  0.67140001  0.92552259     0.80640
H936        H  0.42559745  0.60469171  0.79063198     0.82860
H937        H  0.48308569  0.67611242  0.91702078     0.80470
H938        H  0.33031491  0.70128649  0.86982519     0.43510
H939        H  0.33034219  0.63909941  0.83927520     0.42480
H940        H  0.39458561  0.55943035  0.82093715     0.42150
H941        H  0.46298147  0.56118535  0.81836912     0.40090
H942        H  0.02187160  0.63571814  0.86670988     0.43220
H943        H  0.02103378  0.71417961  0.86987584     0.38000
H944        H  0.45515256  0.79079772  0.88261924     0.44120
H945        H  0.40440254  0.78829733  0.85551133     0.40540
H946        H  0.46908928  0.55633056  0.87109866     0.45460
H947        H  0.01804975  0.75203813  0.85879749     0.44180
H948        H  0.37246047  0.79018485  0.85514376     0.44310
H949        H  0.33116136  0.60132036  0.85127561     0.44670
O950        O  0.20613942  0.97755349  0.96879640    -0.74200
O951        O  0.24373219  0.96514595  0.92561811    -0.53110
C952        C  0.23157118  0.97621883  0.96312308     0.79530
O953        O  0.13111107  0.86991864  0.94381675    -0.58800
O954        O  0.09611291  0.89078659  0.90160730    -0.51990
C955        C  0.10609381  0.87457939  0.93574794     0.71540
O956        O  0.21783055  0.87358808  0.95256868    -0.73360
O957        O  0.25370513  0.89578964  0.91368340    -0.53920
C958        C  0.24331725  0.87774743  0.94660954     0.77550
O959        O  0.12672291  0.99314949  0.93569432    -0.58500
O960        O  0.09405365  0.95992964  0.90441019    -0.51620
C961        C  0.10222157  0.98307633  0.93248077     0.74140
Zr962      Zr  0.17178767  0.97967845  0.91309377     2.54710
O963        O  0.16278871  0.99972600  0.99145404    -0.79070
O964        O  0.18258934  0.53777806  0.90108563    -0.92490
Zr965      Zr  0.17500166  0.88202565  0.91655158     2.64680
O966        O  0.17589287  0.87421539  0.99994210    -0.97440
O967        O  0.17737597  0.82240993  0.90395853    -0.79500
O968        O  0.19902857  0.93195969  0.91758890    -0.82860
O969        O  0.14712339  0.92969786  0.91580714    -2.17570
O970        O  0.13167431  0.98743141  0.75702460    -0.66250
O971        O  0.09641964  0.96306991  0.79597461    -0.50810
C972        C  0.10652637  0.98148138  0.76419834     0.72520
O973        O  0.22093418  0.87394560  0.75621768    -0.59160
O974        O  0.25503429  0.89473870  0.80201451    -0.51130
C975        C  0.24585481  0.87882154  0.76625285     0.74320
O976        O  0.13296101  0.86346953  0.75222288    -0.70550
O977        O  0.09802012  0.89119165  0.78705552    -0.49230
C978        C  0.10769621  0.87065711  0.75641859     0.75710
O979        O  0.21913807  0.97792923  0.74251677    -0.65880
O980        O  0.25338328  0.96522264  0.79256827    -0.53080
C981        C  0.24427410  0.97684815  0.75334197     0.74090
Zr982      Zr  0.17652997  0.97566607  0.78271722     2.77540
O983        O  0.17591955  0.98219620  0.69894317    -0.96630
O984        O  0.18283939  0.53536871  0.78846067    -0.77450
Zr985      Zr  0.17622348  0.87855128  0.78613822     2.70070
O986        O  0.17762263  0.86766540  0.70320422    -0.78700
O987        O  0.17976361  0.81950212  0.80166062    -0.97780
Zr988      Zr  0.23025627  0.93143476  0.85532736     2.21500
Zr989      Zr  0.12012962  0.92658700  0.84735273     2.11130
O990        O  0.14976282  0.92668678  0.78133260    -2.46470
O991        O  0.20257137  0.92759010  0.78769804    -0.78490
O992        O  0.14552143  0.97778284  0.84556257    -0.70690
O993        O  0.20425893  0.88057725  0.85267047    -2.31640
O994        O  0.20320656  0.98092096  0.85053688    -2.27850
O995        O  0.14703559  0.87730157  0.85057860    -0.72450
H996        H  0.13614102  0.93030146  0.94353827     0.79550
H997        H  0.21599510  0.86149478  0.85382524     0.80640
H998        H  0.13966456  0.92603570  0.75273219     0.82860
H999        H  0.21444520  0.00063508  0.85041822     0.80470
H1000       H  0.19698465  0.81709622  0.90468359     0.43510
H1001       H  0.16070879  0.81151927  0.80311990     0.42480
H1002       H  0.17692695  0.88990655  0.68900960     0.42150
H1003       H  0.16265164  0.96547183  0.68764329     0.40090
H1004       H  0.17181209  0.54187898  0.81561066     0.43220
H1005       H  0.20048593  0.54072256  0.91616164     0.38000
H1006       H  0.15708423  0.97984734  0.00903305     0.44120
H1007       H  0.16163128  0.88901584  0.01248891     0.40540
H1008       H  0.16720753  0.00387937  0.69355563     0.45460
H1009       H  0.16979406  0.54966375  0.92177100     0.44180
H1010       H  0.16881281  0.85144180  0.00439798     0.44310
H1011       H  0.18703544  0.80982432  0.77258893     0.44670
C1012       C  0.17613724  0.67187655  0.86073316    -0.01390
C1013       C  0.17739867  0.92809557  0.35370835    -0.01390
C1014       C  0.43167594  0.68044979  0.35244512    -0.01390
O1015       O  0.49421117  0.62046455  0.66868975    -0.74200
O1016       O  0.01632472  0.59345617  0.72663567    -0.53110
C1017       C  0.99806071  0.61294354  0.71081763     0.79530
O1018       O  0.49174405  0.49206982  0.53456217    -0.58800
O1019       O  0.01980734  0.51409975  0.47927824    -0.51830
C1020       C  0.49922809  0.49669035  0.49314441     0.71540
O1021       O  0.49098417  0.49626556  0.68251770    -0.73360
O1022       O  0.01426292  0.52363368  0.73857088    -0.53920
C1023       C  0.99539861  0.50360039  0.72498109     0.77550
O1024       O  0.49927968  0.61673317  0.52121396    -0.58500
O1025       O  0.02226061  0.58594753  0.46767829    -0.51620
C1026       C  0.00412630  0.60771858  0.47939779     0.74140
Zr1027     Zr  0.01544840  0.60562889  0.59826531     2.54710
O1028       O  0.46781417  0.62130919  0.59440400    -0.79070
O1029       O  0.02962438  0.66275182  0.58869195    -0.92490
Zr1030     Zr  0.00820695  0.50831703  0.60667580     2.64680
O1031       O  0.45883533  0.51293060  0.60853082    -0.97440
O1032       O  0.00768656  0.94791160  0.60689597    -0.79500
O1033       O  0.00954365  0.55878079  0.64675299    -0.82860
O1034       O  0.01177695  0.55526576  0.55809835    -2.17570
O1035       O  0.11290859  0.61083182  0.53735605    -0.66250
O1036       O  0.08739644  0.58621972  0.48027782    -0.50810
C1037       C  0.10727979  0.60439641  0.49516044     0.72520
O1038       O  0.09707475  0.48906560  0.68800209    -0.59160
O1039       O  0.07089904  0.51557178  0.74225412    -0.51130
C1040       C  0.08958079  0.49555919  0.72975699     0.74320
O1041       O  0.10571724  0.48509278  0.53127075    -0.70550
O1042       O  0.08550316  0.51520010  0.47433381    -0.49230
C1043       C  0.10294524  0.49368937  0.48856020     0.75710
O1044       O  0.10795446  0.61127316  0.68914163    -0.65880
O1045       O  0.08096158  0.58550910  0.74223824    -0.53080
C1046       C  0.10108499  0.60439375  0.73097586     0.74090
Zr1047     Zr  0.09388793  0.59755095  0.61063052     2.77540
O1048       O  0.14305141  0.59197045  0.61653142    -0.96630
O1049       O  0.09589448  0.65790448  0.61129790    -0.77450
Zr1050     Zr  0.08686552  0.49968817  0.60772729     2.70070
O1051       O  0.13543545  0.48942008  0.61232829    -0.78700
O1052       O  0.07740305  0.94039104  0.60697505    -0.97780
Zr1053     Zr  0.04817482  0.55472758  0.69496719     2.21500
Zr1054     Zr  0.05291414  0.55112606  0.51520360     2.11130
O1055       O  0.09168975  0.54854684  0.56469160    -2.46470
O1056       O  0.08988102  0.54869661  0.65388072    -0.78490
O1057       O  0.05670324  0.60166865  0.55804407    -0.70690
O1058       O  0.04671802  0.50372355  0.65288469    -2.31640
O1059       O  0.05262316  0.60419530  0.65090873    -2.27850
O1060       O  0.04802356  0.50216335  0.56049354    -0.72450
H1061       H  0.49602134  0.55589143  0.53831605     0.79550
H1062       H  0.04477097  0.98486900  0.67304573     0.80640
H1063       H  0.10828059  0.54714270  0.54689759     0.82860
H1064       H  0.05314850  0.62365915  0.67058644     0.80470
H1065       H  0.01485030  0.94163823  0.63757872     0.43510
H1066       H  0.06934899  0.93589555  0.57616498     0.42480
H1067       H  0.14391112  0.51159910  0.60903476     0.42150
H1068       H  0.14825301  0.57693007  0.59079317     0.40090
H1069       H  0.08987331  0.66454590  0.58004489     0.43220
H1070       H  0.04125211  0.66685103  0.61595133     0.38000
H1071       H  0.45783670  0.59995821  0.59230100     0.44120
H1072       H  0.45425376  0.52758070  0.58237650     0.40540
H1073       H  0.15044409  0.61389793  0.60760310     0.45460
H1074       H  0.51296746  0.67579516  0.59440024     0.44180
H1075       H  0.45196459  0.49076662  0.59913342     0.44310
H1076       H  0.09553949  0.92991709  0.60557061     0.44670
O1077       O  0.50176676  0.86431914  0.01874230    -0.74200
O1078       O  0.02046993  0.83328641  0.96175139    -0.53110
C1079       C  0.00474434  0.85640982  0.97584537     0.79530
O1080       O  0.11576625  0.86301779  0.17098096    -0.58800
O1081       O  0.08902757  0.84101662  0.22787398    -0.51830
C1082       C  0.10970762  0.85791200  0.21396954     0.71540
O1083       O  0.09856291  0.86622634  0.01280718    -0.73360
O1084       O  0.07125749  0.83966527  0.96022534    -0.53920
C1085       C  0.08970645  0.86045012  0.97147281     0.77550
O1086       O  0.49557092  0.85881758  0.17091773    -0.58500
O1087       O  0.02468935  0.84164071  0.22709203    -0.51620
C1088       C  0.00273365  0.85521547  0.21275322     0.74140
Zr1089     Zr  0.01596106  0.85418370  0.09771043     2.54710
O1090       O  0.02490536  0.91329284  0.10248534    -0.79070
O1091       O  0.46825213  0.87017184  0.09684979    -0.92490
Zr1092     Zr  0.09495757  0.85189599  0.09436130     2.64680
O1093       O  0.09713125  0.91219975  0.09724997    -0.97440
O1094       O  0.14392156  0.84968478  0.08370588    -0.79500
O1095       O  0.05426840  0.85213511  0.05069613    -0.82860
O1096       O  0.05634857  0.85564955  0.14271851    -2.17570
O1097       O  0.49476616  0.75205062  0.18672042    -0.66250
O1098       O  0.02567297  0.77332664  0.23746547    -0.50810
C1099       C  0.00334561  0.75763752  0.22787268     0.72520
O1100       O  0.10532243  0.73936646  0.01550160    -0.59160
O1101       O  0.08030165  0.76725176  0.96246267    -0.51130
C1102       C  0.09905894  0.74684712  0.97380979     0.74320
O1103       O  0.11176235  0.74311896  0.16630422    -0.70550
O1104       O  0.08948241  0.77108046  0.22403231    -0.49230
C1105       C  0.10775132  0.75117742  0.20852752     0.75710
O1106       O  0.49277791  0.73846082  0.04018752    -0.65880
O1107       O  0.01518105  0.76448779  0.98123119    -0.53080
C1108       C  0.99663697  0.74550146  0.99799617     0.74090
Zr1109     Zr  0.01277786  0.75648832  0.10907226     2.77540
O1110       O  0.01611081  0.69713932  0.12237349    -0.96630
O1111       O  0.46332303  0.75380896  0.11096265    -0.77450
Zr1112     Zr  0.09153334  0.75378417  0.09347147     2.70070
O1113       O  0.08043755  0.69507056  0.09338486    -0.78700
O1114       O  0.14006345  0.74326166  0.08475562    -0.97780
Zr1115     Zr  0.04992517  0.80083008  0.00995728     2.21500
Zr1116     Zr  0.05649590  0.80611861  0.18784654     2.11130
O1117       O  0.05474495  0.75481084  0.14722457    -2.46470
O1118       O  0.04947570  0.75184946  0.05507848    -0.78490
O1119       O  0.01519717  0.80745487  0.14678544    -0.70690
O1120       O  0.09257422  0.80242395  0.04914247    -2.31640
O1121       O  0.01115066  0.80334494  0.05924556    -2.27850
O1122       O  0.09501651  0.80315349  0.13819567    -0.72450
H1123       H  0.05710435  0.87524794  0.16212035     0.79550
H1124       H  0.10766874  0.80220649  0.02768922     0.80640
H1125       H  0.05558028  0.73642948  0.16835372     0.82860
H1126       H  0.49424774  0.80361370  0.04233198     0.80470
H1127       H  0.14865456  0.82633030  0.08993968     0.43510
H1128       H  0.14920502  0.75951698  0.10543313     0.42480
H1129       H  0.07414201  0.69012913  0.06152978     0.42150
H1130       H  0.02470263  0.69476204  0.15308528     0.40090
H1131       H  0.45754203  0.77727581  0.11111162     0.43220
H1132       H  0.45946928  0.85509750  0.07409914     0.38000
H1133       H  0.04270688  0.91595289  0.08690361     0.44120
H1134       H  0.09390525  0.91803215  0.13015925     0.40540
H1135       H  0.49699725  0.69013747  0.12760846     0.45460
H1136       H  0.46793529  0.89227590  0.08224142     0.44180
H1137       H  0.11654256  0.91759878  0.09191044     0.44310
H1138       H  0.14315412  0.72144921  0.09924076     0.44670
O1139       O  0.35378345  0.99172765  0.01010189    -0.74200
O1140       O  0.38743751  0.52001227  0.04766878    -0.53110
C1141       C  0.37845961  0.50016510  0.01545556     0.79530
O1142       O  0.26381176  0.60243440  0.99530894    -0.58800
O1143       O  0.22887896  0.58035034  0.03790486    -0.51830
C1144       C  0.23844812  0.59680651  0.00261400     0.71540
O1145       O  0.35068287  0.57869242  0.00314046    -0.73360
O1146       O  0.38372569  0.58972396  0.05375725    -0.53920
C1147       C  0.37305791  0.59297706  0.01371674     0.77550
O1148       O  0.27233491  0.98219439  0.99930225    -0.58500
O1149       O  0.23600714  0.50723057  0.03461883    -0.51620
C1150       C  0.24737375  0.48902090  0.00213546     0.74140
Zr1151     Zr  0.31015726  0.49936483  0.04138892     2.54710
O1152       O  0.31378165  0.49165856  0.95790820    -0.79070
O1153       O  0.31243246  0.94017892  0.05621438    -0.92490
Zr1154     Zr  0.30735299  0.59629358  0.03406668     2.64680
O1155       O  0.31295548  0.61896078  0.95664840    -0.97440
O1156       O  0.31429422  0.65557201  0.04629301    -0.79500
O1157       O  0.33486880  0.54883983  0.03998507    -0.82860
O1158       O  0.28199939  0.54640870  0.03469870    -2.17570
O1159       O  0.26216328  0.99097445  0.20114112    -0.66250
O1160       O  0.22673597  0.51215412  0.16143433    -0.50810
C1161       C  0.23669858  0.49533519  0.19611216     0.72520
O1162       O  0.34692703  0.61100461  0.20424977    -0.59160
O1163       O  0.38379755  0.58926087  0.16810208    -0.51130
C1164       C  0.37268429  0.60725446  0.20050972     0.74320
O1165       O  0.25968093  0.61023986  0.19349992    -0.70550
O1166       O  0.22611897  0.58271758  0.15362275    -0.49230
C1167       C  0.23489182  0.60222775  0.18640162     0.75710
O1168       O  0.35054421  0.99303906  0.20040735    -0.65880
O1169       O  0.38594216  0.51640209  0.16060689    -0.53080
C1170       C  0.37571865  0.49852709  0.19303422     0.74090
Zr1171     Zr  0.30638137  0.50369187  0.17171385     2.77540
O1172       O  0.30814106  0.50905534  0.25578987    -0.96630
O1173       O  0.30654771  0.94335703  0.17410835    -0.77450
Zr1174     Zr  0.30449518  0.60046580  0.16518482     2.70070
O1175       O  0.29975998  0.61682703  0.24606886    -0.78700
O1176       O  0.30702834  0.65830136  0.14322076    -0.97780
Zr1177     Zr  0.36230977  0.55258967  0.10779575     2.21500
Zr1178     Zr  0.25114926  0.54591122  0.09896891     2.11130
O1179       O  0.27902752  0.55073607  0.16671187    -2.46470
O1180       O  0.33199619  0.55333043  0.17229104    -0.78490
O1181       O  0.27947008  0.49771185  0.10431452    -0.70690
O1182       O  0.33439466  0.60151359  0.10178328    -2.31640
O1183       O  0.33679773  0.50158077  0.10845339    -2.27850
O1184       O  0.27702620  0.59721050  0.09795787    -0.72450
H1185       H  0.27283749  0.54478525  0.00533824     0.79550
H1186       H  0.34539740  0.62142658  0.10184960     0.80640
H1187       H  0.26801303  0.55108890  0.19436113     0.82860
H1188       H  0.34863241  0.98260102  0.10977253     0.80470
H1189       H  0.33226376  0.66037346  0.03223180     0.43510
H1190       H  0.28815120  0.66393841  0.13473656     0.42480
H1191       H  0.30012458  0.59567903  0.26323319     0.42150
H1192       H  0.29075246  0.51934714  0.26524698     0.40090
H1193       H  0.28862380  0.93651073  0.16165325     0.43220
H1194       H  0.31963561  0.93803750  0.08793095     0.38000
H1195       H  0.31426040  0.51444158  0.94538339     0.44120
H1196       H  0.30415673  0.60256169  0.93577393     0.40540
H1197       H  0.30710696  0.98607832  0.26739797     0.45460
H1198       H  0.32748803  0.93252192  0.03609119     0.44180
H1199       H  0.30115309  0.63873012  0.95552322     0.44310
H1200       H  0.31056161  0.67022708  0.17268050     0.44670
C1201       C  0.30040388  0.80410822  0.09775095    -0.01390
C1202       C  0.04920130  0.79828799  0.60688409    -0.01390
O1203       O  0.11788499  0.73253459  0.43367626    -0.74200
O1204       O  0.14592703  0.70907494  0.48672028    -0.53110
C1205       C  0.12471528  0.72652504  0.47576419     0.79530
O1206       O  0.12168055  0.60954336  0.26770596    -0.58800
O1207       O  0.14208284  0.64213013  0.21363387    -0.51830
C1208       C  0.12548768  0.61876220  0.22556663     0.71540
O1209       O  0.11941039  0.61224244  0.41937539    -0.73360
O1210       O  0.14466064  0.63797542  0.47586005    -0.53920
C1211       C  0.12506514  0.61915783  0.46139697     0.77550
O1212       O  0.12039567  0.74209297  0.28381704    -0.58500
O1213       O  0.14263896  0.71471198  0.22542620    -0.51620
C1214       C  0.12495944  0.73525401  0.24134537     0.74140
Zr1215     Zr  0.13698060  0.72370891  0.35617533     2.54710
O1216       O  0.08761743  0.72751579  0.35558395    -0.79070
O1217       O  0.14392053  0.78334486  0.36415458    -0.92490
Zr1218     Zr  0.13682036  0.62586696  0.34544231     2.64680
O1219       O  0.08728606  0.62400152  0.34549666    -0.97440
O1220       O  0.14183144  0.56598049  0.34372041    -0.79500
O1221       O  0.13750977  0.67317555  0.39538138    -0.82860
O1222       O  0.13499032  0.67635169  0.30596411    -2.17570
O1223       O  0.22925028  0.74225492  0.26810308    -0.66250
O1224       O  0.20530571  0.71295391  0.21384452    -0.50810
C1225       C  0.22329487  0.73486477  0.22592907     0.72520
O1226       O  0.23257996  0.60911300  0.42516629    -0.59160
O1227       O  0.21019074  0.63820205  0.48170528    -0.51130
C1228       C  0.22817256  0.61674763  0.46843239     0.74320
O1229       O  0.22431677  0.61009746  0.26421272    -0.70550
O1230       O  0.19920565  0.63747401  0.21004957    -0.49230
C1231       C  0.21715339  0.61629656  0.22201959     0.75710
O1232       O  0.23627551  0.73722492  0.41868454    -0.65880
O1233       O  0.21243877  0.71033715  0.47547669    -0.53080
C1234       C  0.23149463  0.72999427  0.46094772     0.74090
Zr1235     Zr  0.21643187  0.72352404  0.34547192     2.77540
O1236       O  0.26590128  0.72339094  0.34069247    -0.96630
O1237       O  0.21234341  0.78353724  0.34751061    -0.77450
Zr1238     Zr  0.21627529  0.62508834  0.34607239     2.70070
O1239       O  0.26562579  0.62628696  0.34013908    -0.78700
O1240       O  0.21459391  0.56473977  0.34701766    -0.97780
Zr1241     Zr  0.17812652  0.67411690  0.43979404     2.21500
Zr1242     Zr  0.17448648  0.67631654  0.25794752     2.11130
O1243       O  0.21612879  0.67438601  0.30052893    -2.46470
O1244       O  0.21721025  0.67444564  0.39063812    -0.78490
O1245       O  0.17503781  0.72521100  0.30480447    -0.70690
O1246       O  0.17663989  0.62466955  0.39255280    -2.31640
O1247       O  0.17833322  0.72453025  0.39715299    -2.27850
O1248       O  0.17626567  0.62572637  0.30001053    -0.72450
H1249       H  0.11854995  0.67666264  0.28778774     0.79550
H1250       H  0.17644456  0.60510044  0.41162433     0.80640
H1251       H  0.23154329  0.67438170  0.27973262     0.82860
H1252       H  0.17914948  0.74357625  0.41758685     0.80470
H1253       H  0.15112652  0.56111889  0.31400957     0.43510
H1254       H  0.20397547  0.55841385  0.31921841     0.42480
H1255       H  0.27099341  0.64770333  0.35447864     0.42150
H1256       H  0.27022128  0.70992967  0.31285451     0.40090
H1257       H  0.19885694  0.78866814  0.32325746     0.43220
H1258       H  0.14411761  0.78766656  0.39794041     0.38000
H1259       H  0.08124563  0.70418991  0.35575451     0.44120
H1260       H  0.08171808  0.63847813  0.31972310     0.40540
H1261       H  0.27094762  0.74634390  0.33215687     0.45460
H1262       H  0.12668045  0.79318956  0.35344069     0.44180
H1263       H  0.08257696  0.60127930  0.33495250     0.44310
H1264       H  0.23340650  0.55782206  0.33967872     0.44670
O1265       O  0.35873522  0.73574293  0.67312506    -0.74200
O1266       O  0.33645664  0.76312135  0.73146029    -0.53110
C1267       C  0.35462977  0.74331042  0.71541644     0.79530
O1268       O  0.36209002  0.86355377  0.53920277    -0.58800
O1269       O  0.33566840  0.83967500  0.48262617    -0.51830
C1270       C  0.35573065  0.85789786  0.49708984     0.71540
O1271       O  0.35936333  0.86435043  0.69125738    -0.73360
O1272       O  0.33644551  0.83367210  0.74486664    -0.53920
C1273       C  0.35414927  0.85596383  0.73344423     0.77550
O1274       O  0.35555192  0.73563562  0.52399698    -0.58500
O1275       O  0.33408749  0.76775132  0.47093966    -0.51620
C1276       C  0.35179981  0.74538480  0.48216798     0.74140
Zr1277     Zr  0.33866277  0.74943030  0.60168758     2.54710
O1278       O  0.38688529  0.73657645  0.59719753    -0.79070
O1279       O  0.32500292  0.69134980  0.59960357    -0.92490
Zr1280     Zr  0.34517758  0.84718064  0.61267907     2.64680
O1281       O  0.39417322  0.83941982  0.61708898    -0.97440
O1282       O  0.34676367  0.90749720  0.61241516    -0.79500
O1283       O  0.34298771  0.79659208  0.65198657    -0.82860
O1284       O  0.34221237  0.79989581  0.56255355    -2.17570
O1285       O  0.24338215  0.73966048  0.53745608    -0.66250
O1286       O  0.26820186  0.76562899  0.48088331    -0.50810
C1287       C  0.24899230  0.74605322  0.49518737     0.72520
O1288       O  0.25695908  0.87015132  0.68979019    -0.59160
O1289       O  0.28007111  0.84148576  0.74527723    -0.51130
C1290       C  0.26335218  0.86371157  0.73209172     0.74320
O1291       O  0.24813806  0.86886323  0.53175883    -0.70550
O1292       O  0.26983512  0.83906428  0.47526280    -0.49230
C1293       C  0.25203978  0.86074363  0.48874270     0.75710
O1294       O  0.24563632  0.74136967  0.69018919    -0.65880
O1295       O  0.27160272  0.76547305  0.74598835    -0.53080
C1296       C  0.25196742  0.74590790  0.73306214     0.74090
Zr1297     Zr  0.25990001  0.75646944  0.61186476     2.77540
O1298       O  0.21077568  0.76367562  0.61457198    -0.96630
O1299       O  0.25693954  0.69630689  0.61431415    -0.77450
Zr1300     Zr  0.26550380  0.85370582  0.60963179     2.70070
O1301       O  0.21625556  0.85619094  0.61670054    -0.78700
O1302       O  0.26916068  0.91330827  0.60192072    -0.97780
Zr1303     Zr  0.30359519  0.80042231  0.69987105     2.21500
Zr1304     Zr  0.30182060  0.80270211  0.51722621     2.11130
O1305       O  0.26214360  0.80477855  0.56534801    -2.46470
O1306       O  0.26248807  0.80539297  0.65656352    -0.78490
O1307       O  0.29792263  0.75254249  0.56014974    -0.70690
O1308       O  0.30524313  0.85068052  0.65636251    -2.31640
O1309       O  0.30073833  0.75122933  0.65333383    -2.27850
O1310       O  0.30569116  0.85150891  0.56483953    -0.72450
H1311       H  0.35823784  0.79911246  0.54322434     0.79550
H1312       H  0.30684055  0.87000504  0.67610745     0.80640
H1313       H  0.24590350  0.80569300  0.54673131     0.82860
H1314       H  0.30027587  0.73173010  0.67251350     0.80470
H1315       H  0.32795507  0.91440020  0.61976556     0.43510
H1316       H  0.27786060  0.91658901  0.57132692     0.42480
H1317       H  0.21116302  0.83553877  0.63294041     0.42150
H1318       H  0.20629101  0.77640916  0.58647328     0.40090
H1319       H  0.26990481  0.68957305  0.63858041     0.43220
H1320       H  0.32709529  0.68366253  0.63185116     0.38000
H1321       H  0.39607905  0.75847895  0.59769693     0.44120
H1322       H  0.39881934  0.82577826  0.58957803     0.40540
H1323       H  0.20321135  0.74125134  0.60862125     0.45460
H1324       H  0.33969705  0.68013494  0.58214468     0.44180
H1325       H  0.40202197  0.86154191  0.61045681     0.44310
H1326       H  0.25022242  0.92088639  0.59776882     0.44670
C1327       C  0.30208009  0.54812405  0.60316280    -0.01390
C1328       C  0.05038324  0.54636840  0.09539301    -0.01390
C1329       C  0.08077008  0.60067819  0.11963633     0.24690
C1330       C  0.07332523  0.56628425  0.12484591    -0.23420
C1331       C  0.08941963  0.54969015  0.15859876     0.19600
C1332       C  0.10567725  0.56662090  0.19105207     0.24630
C1333       C  0.10936485  0.60089937  0.18902529    -0.23360
C1334       C  0.09780569  0.61740185  0.15165140     0.19530
F1335       F  0.10290714  0.65017006  0.14621088    -0.13320
F1336       F  0.07343723  0.61879125  0.08244700    -0.15680
F1337       F  0.11917206  0.54882896  0.22336121    -0.15690
F1338       F  0.09190653  0.51665335  0.15913454    -0.13320
C1339       C  0.25806677  0.61791612  0.54136079     0.24690
C1340       C  0.24513790  0.59977787  0.50550334    -0.23420
C1341       C  0.24852221  0.56517119  0.50571384     0.19600
C1342       C  0.26486516  0.54945541  0.53927937     0.24630
C1343       C  0.28023405  0.56767248  0.57290355    -0.23360
C1344       C  0.27511814  0.60239801  0.57449709     0.19530
F1345       F  0.28578495  0.62171316  0.60852131    -0.13320
F1346       F  0.25491314  0.65124285  0.54339781    -0.15680
F1347       F  0.26710432  0.51596379  0.53687913    -0.15690
F1348       F  0.23579464  0.54621181  0.47325015    -0.13320
C1349       C  0.06029728  0.75433840  0.54182146     0.24690
C1350       C  0.07002274  0.77777947  0.57502495    -0.23420
C1351       C  0.09886998  0.78342717  0.57401374     0.19600
C1352       C  0.11651687  0.76491784  0.54490337     0.24630
C1353       C  0.10648776  0.74158670  0.51283990    -0.23360
C1354       C  0.07801430  0.73697409  0.51145711     0.19530
F1355       F  0.06709559  0.71564585  0.47992905    -0.13320
F1356       F  0.03323512  0.74831167  0.53808823    -0.15680
F1357       F  0.14355929  0.77182877  0.54568726    -0.15690
F1358       F  0.11057400  0.80854927  0.59831925    -0.13320
C1359       C  0.23534237  0.78343992  0.17447243     0.24690
C1360       C  0.24022963  0.75114932  0.18960680    -0.23420
C1361       C  0.26391299  0.73557196  0.17473098     0.19600
C1362       C  0.28269094  0.75146507  0.14544870     0.24630
C1363       C  0.27881507  0.78474156  0.12974480    -0.23360
C1364       C  0.25387143  0.79975018  0.14478269     0.19530
F1365       F  0.24748412  0.83104883  0.13179537    -0.13320
F1366       F  0.21281531  0.79966606  0.18932230    -0.15680
F1367       F  0.30472043  0.73332070  0.13411541    -0.15690
F1368       F  0.26950035  0.70485380  0.19070978    -0.13320
C1369       C  0.38871708  0.66629092  0.30152978     0.24690
C1370       C  0.41628552  0.66008784  0.31305348    -0.23420
C1371       C  0.43038927  0.63838104  0.28195372     0.19600
C1372       C  0.41686995  0.62096512  0.24565689     0.24630
C1373       C  0.38901218  0.62588943  0.23709354    -0.23360
C1374       C  0.37567615  0.64976249  0.26511947     0.19530
F1375       F  0.34960201  0.65874818  0.25658167    -0.13320
F1376       F  0.37404756  0.69054693  0.32237505    -0.15680
F1377       F  0.43119979  0.59943812  0.21893117    -0.15690
F1378       F  0.45751147  0.63367893  0.28675860    -0.13320
C1379       C  0.45789067  0.74692369  0.26473073     0.24690
C1380       C  0.48629324  0.74321148  0.26534902    -0.23420
C1381       C  0.99736476  0.71977861  0.29497686     0.19600
C1382       C  0.48056956  0.69950557  0.32219757     0.24630
C1383       C  0.45161262  0.70388824  0.32421539    -0.23360
C1384       C  0.44092465  0.72786299  0.29353715     0.19530
F1385       F  0.41371552  0.73249326  0.29037969    -0.13320
F1386       F  0.44637489  0.76861945  0.23501152    -0.15680
F1387       F  0.49320828  0.67338579  0.34177823    -0.15690
F1388       F  0.02450085  0.71373995  0.29371487    -0.13320
C1389       C  0.46955306  0.60696089  0.41435912     0.24690
C1390       C  0.48698163  0.62462218  0.44425345    -0.23420
C1391       C  0.48374883  0.65910601  0.44781287     0.19600
C1392       C  0.46482597  0.67578567  0.42062406     0.24630
C1393       C  0.44878645  0.65889690  0.38692155    -0.23360
C1394       C  0.45029653  0.62362618  0.38680145     0.19530
F1395       F  0.43238180  0.60474209  0.36255719    -0.13320
F1396       F  0.96992471  0.57334767  0.41410017    -0.15680
F1397       F  0.46370826  0.70926235  0.42500819    -0.15690
F1398       F  0.49920488  0.67700422  0.47798736    -0.13320
C1399       C  0.40993953  0.73400353  0.39398124     0.24690
C1400       C  0.41060101  0.69913045  0.38576007    -0.23420
C1401       C  0.39116229  0.68022789  0.41123204     0.19600
C1402       C  0.37159451  0.69525715  0.44051258     0.24630
C1403       C  0.37017888  0.72993641  0.44587686    -0.23360
C1404       C  0.38985089  0.74897299  0.42246133     0.19530
F1405       F  0.39092469  0.78221791  0.42986728    -0.13320
F1406       F  0.42979817  0.75395130  0.37770891    -0.15680
F1407       F  0.35392695  0.67560848  0.46406110    -0.15690
F1408       F  0.39078316  0.64669442  0.40720378    -0.13320
C1409       C  0.11448141  0.89091947  0.28654169     0.24690
C1410       C  0.12695734  0.87334842  0.25057613    -0.23420
C1411       C  0.15539783  0.87090802  0.25042279     0.19600
C1412       C  0.17104815  0.88603214  0.28562996     0.24630
C1413       C  0.15888451  0.90525394  0.32173404    -0.23360
C1414       C  0.12979126  0.90747063  0.32029999     0.19530
F1415       F  0.11522371  0.92799192  0.34798037    -0.13320
F1416       F  0.08700586  0.89430398  0.28716283    -0.15680
F1417       F  0.19848010  0.88304931  0.28308743    -0.15690
F1418       F  0.16813347  0.85373224  0.21617152    -0.13320
C1419       C  0.17867995  0.96897241  0.28205048     0.24690
C1420       C  0.19303353  0.95050948  0.31653734    -0.23420
C1421       C  0.22142123  0.94779960  0.30879730     0.19600
C1422       C  0.23424816  0.96163399  0.27022777     0.24630
C1423       C  0.22016360  0.97991834  0.23585975    -0.23360
C1424       C  0.19196737  0.98353241  0.24300447     0.19530
F1425       F  0.17699789  0.00053578  0.21188742    -0.13320
F1426       F  0.15127715  0.97200651  0.28510284    -0.15680
F1427       F  0.26126391  0.95534256  0.26661434    -0.15690
F1428       F  0.23769782  0.92920961  0.33581371    -0.13320
C1429       C  0.13655329  0.49710148  0.42205502     0.24690
C1430       C  0.12177466  0.97796267  0.45407278    -0.23420
C1431       C  0.12681390  0.94384822  0.45552472     0.19600
C1432       C  0.14484715  0.92887835  0.42413459     0.24630
C1433       C  0.15897415  0.94745918  0.38960226    -0.23360
C1434       C  0.15535781  0.98239076  0.39108273     0.19530
F1435       F  0.17045964  0.50286016  0.36428229    -0.13320
F1436       F  0.13376943  0.53052043  0.42248759    -0.15680
F1437       F  0.14720059  0.89540398  0.42578874    -0.15690
F1438       F  0.11354311  0.92454335  0.48669857    -0.13320
C1439       C  0.23121891  0.91182170  0.45171092     0.24690
C1440       C  0.23425629  0.87720357  0.45275285    -0.23420
C1441       C  0.21861337  0.85839390  0.42118843     0.19600
C1442       C  0.20039761  0.87350133  0.38970036     0.24630
C1443       C  0.19795639  0.90869052  0.38676909    -0.23360
C1444       C  0.21388139  0.92718247  0.41940519     0.19530
F1445       F  0.21281360  0.96079741  0.41985662    -0.13320
F1446       F  0.24539462  0.93114047  0.48195478    -0.15680
F1447       F  0.18424902  0.85298606  0.36449995    -0.15690
F1448       F  0.21969770  0.82484487  0.42285810    -0.13320
C1449       C  0.12224480  0.65442046  0.76581149     0.24690
C1450       C  0.11772611  0.62028667  0.76767257    -0.23420
C1451       C  0.13136676  0.60178991  0.80127694     0.19600
C1452       C  0.15035399  0.61706371  0.83133084     0.24630
C1453       C  0.15616775  0.65158207  0.82837755    -0.23360
C1454       C  0.14077805  0.66980310  0.79543865     0.19530
F1455       F  0.14423396  0.70302214  0.79088696    -0.13320
F1456       F  0.10858332  0.67315598  0.73478165    -0.15680
F1457       F  0.16173006  0.59800493  0.86418295    -0.15690
F1458       F  0.12663736  0.56871063  0.80436727    -0.13320
C1459       C  0.15286013  0.72944023  0.88310338     0.24690
C1460       C  0.15485981  0.69436867  0.88631906    -0.23420
C1461       C  0.13444956  0.67790232  0.91311719     0.19600
C1462       C  0.11512292  0.69530122  0.93825812     0.24630
C1463       C  0.11484296  0.72976167  0.93772598    -0.23360
C1464       C  0.13316224  0.74679967  0.90905208     0.19530
F1465       F  0.13259476  0.78038035  0.90758596    -0.13320
F1466       F  0.16902839  0.74727957  0.85451627    -0.15680
F1467       F  0.09726274  0.67830173  0.96526173    -0.15690
F1468       F  0.13421681  0.64444493  0.91762205    -0.13320
C1469       C  0.21031221  0.62565734  0.88597234     0.24690
C1470       C  0.19221178  0.65138585  0.89876466    -0.23420
C1471       C  0.19102952  0.65875511  0.94753620     0.19600
C1472       C  0.20326884  0.63840781  0.98074540     0.24630
C1473       C  0.21997401  0.61212542  0.96755585    -0.23360
C1474       C  0.22411034  0.60677617  0.91961130     0.19530
F1475       F  0.24209664  0.58347113  0.90516156    -0.13320
F1476       F  0.21490664  0.61879217  0.84057473    -0.15680
F1477       F  0.20091984  0.64663913  0.02626585    -0.15690
F1478       F  0.18002703  0.68716660  0.96432698    -0.13320
C1479       C  0.20246131  0.68093528  0.78159724     0.24690
C1480       C  0.19822272  0.69007819  0.82894337    -0.23420
C1481       C  0.21642075  0.71481577  0.84616483     0.19600
C1482       C  0.23424511  0.73282934  0.81622444     0.24630
C1483       C  0.23508744  0.72626077  0.76797494    -0.23360
C1484       C  0.21923697  0.69927692  0.75201269     0.19530
F1485       F  0.22031416  0.68933933  0.70699105    -0.13320
F1486       F  0.19155804  0.65295703  0.76280090    -0.15680
F1487       F  0.25034012  0.75694829  0.83458485    -0.15690
F1488       F  0.21651825  0.72224338  0.89206313    -0.13320
C1489       C  0.06110955  0.85467295  0.65259849     0.24690
C1490       C  0.06477083  0.82000369  0.64435934    -0.23420
C1491       C  0.08079887  0.80298872  0.67750331     0.19600
C1492       C  0.09298213  0.81932488  0.71499604     0.24630
C1493       C  0.08970939  0.85346320  0.72215114    -0.23360
C1494       C  0.07353908  0.87094297  0.69073342     0.19530
F1495       F  0.07031413  0.90413047  0.69622472    -0.13320
F1496       F  0.04448991  0.87309479  0.62599487    -0.15680
F1497       F  0.10854002  0.80150634  0.74444688    -0.15690
F1498       F  0.08499864  0.76987801  0.67341901    -0.13320
C1499       C  0.05705731  0.99386829  0.03766964     0.24690
C1500       C  0.06446761  0.52667558  0.05373678    -0.23420
C1501       C  0.08114267  0.54484197  0.02255131     0.19600
C1502       C  0.08997355  0.53176669  0.98036981     0.24630
C1503       C  0.08427764  0.99892153  0.96742993    -0.23360
C1504       C  0.06764037  0.98016321  0.99646095     0.19530
F1505       F  0.06177977  0.94813695  0.98537709    -0.13320
F1506       F  0.03756734  0.97520811  0.05806064    -0.15680
F1507       F  0.10550589  0.55129517  0.95253730    -0.15690
F1508       F  0.08877775  0.57631576  0.03118917    -0.13320
C1509       C  0.28498124  0.86988678  0.99841808     0.24690
C1510       C  0.25987816  0.85902832  0.98144451    -0.23420
C1511       C  0.24802388  0.83103140  0.00262747     0.19600
C1512       C  0.25995415  0.81536434  0.04025256     0.24630
C1513       C  0.28551885  0.82563048  0.05884212    -0.23360
C1514       C  0.29749725  0.85390048  0.03629819     0.19530
F1515       F  0.32093249  0.86781151  0.05078079    -0.13320
F1516       F  0.29723419  0.89667781  0.97914810    -0.15680
F1517       F  0.24666594  0.78790670  0.05546208    -0.15690
F1518       F  0.22444468  0.81772350  0.98629447    -0.13320
C1519       C  0.26794033  0.54314804  0.67049790     0.24690
C1520       C  0.28354400  0.52615344  0.63618717    -0.23420
C1521       C  0.28457056  0.99109844  0.64069571     0.19600
C1522       C  0.27452460  0.97509165  0.68127182     0.24630
C1523       C  0.26190346  0.99316898  0.71737204    -0.23360
C1524       C  0.25790014  0.52716552  0.71007847     0.19530
F1525       F  0.24366739  0.54523980  0.74165439    -0.13320
F1526       F  0.26447140  0.57640674  0.66816248    -0.15680
F1527       F  0.27671131  0.94176153  0.68511406    -0.15690
F1528       F  0.29516258  0.97219815  0.60634419    -0.13320
C1529       C  0.34528394  0.57298342  0.71229023     0.24690
C1530       C  0.35807928  0.60251223  0.69968278    -0.23420
C1531       C  0.35457862  0.61357730  0.65380016     0.19600
C1532       C  0.33695447  0.59655762  0.62272846     0.24630
C1533       C  0.32158138  0.56844475  0.63695813    -0.23360
C1534       C  0.32851192  0.55590749  0.68183001     0.19530
F1535       F  0.32082856  0.52561475  0.69714867    -0.13320
F1536       F  0.35010506  0.55896210  0.75411500    -0.15680
F1537       F  0.33537216  0.60750156  0.57857015    -0.15690
F1538       F  0.36828995  0.64073865  0.63880448    -0.13320
C1539       C  0.50517903  0.61970224  0.04857301     0.24690
C1540       C  0.49219423  0.60361837  0.01172873    -0.23420
C1541       C  0.49415634  0.56937873  0.00765491     0.19600
C1542       C  0.01064003  0.55181870  0.03734168     0.24630
C1543       C  0.02852390  0.56797746  0.06919951    -0.23360
C1544       C  0.02226671  0.60196711  0.07823933     0.19530
F1545       F  0.02897858  0.61698471  0.11887922    -0.13320
F1546       F  0.50113864  0.65249411  0.05594302    -0.15680
F1547       F  0.00711141  0.51870150  0.03657073    -0.15690
F1548       F  0.47906114  0.55247811  0.97583533    -0.13320
C1549       C  0.34389541  0.76555549  0.09029023     0.24690
C1550       C  0.31874541  0.77749155  0.07181742    -0.23420
C1551       C  0.31068878  0.76233038  0.02942429     0.19600
C1552       C  0.32873949  0.74404400  0.00270336     0.24630
C1553       C  0.35553675  0.73887755  0.01711233    -0.23360
C1554       C  0.36244377  0.74772919  0.06256278     0.19530
F1555       F  0.38721880  0.74000874  0.07983298    -0.13320
F1556       F  0.35056950  0.77082469  0.13536669    -0.15680
F1557       F  0.31962364  0.73112596  0.96196139    -0.15690
F1558       F  0.28515251  0.76333003  0.01302287    -0.13320
C1559       C  0.49202065  0.77790541  0.69479763     0.24690
C1560       C  0.49240762  0.74346020  0.69788024    -0.23420
C1561       C  0.01263950  0.72585094  0.67395723     0.19600
C1562       C  0.03150193  0.74245190  0.64519894     0.24630
C1563       C  0.03018543  0.77726547  0.63932744    -0.23360
C1564       C  0.51056300  0.79455096  0.66677512     0.19530
F1565       F  0.50835828  0.82801513  0.66492902    -0.13320
F1566       F  0.47373719  0.79574029  0.71985883    -0.15680
F1567       F  0.05209809  0.72470430  0.62655158    -0.15690
F1568       F  0.01527237  0.69287295  0.68129997    -0.13320
C1569       C  0.32913859  0.85683733  0.20274656     0.24690
C1570       C  0.35667300  0.86085656  0.19145104    -0.23420
C1571       C  0.36504281  0.85151845  0.14688650     0.19600
C1572       C  0.34676913  0.83607112  0.11594364     0.24630
C1573       C  0.31932265  0.82768303  0.12903441    -0.23360
C1574       C  0.31099321  0.84082992  0.17278555     0.19530
F1575       F  0.28521853  0.83960231  0.18827611    -0.13320
F1576       F  0.31928013  0.86883627  0.24349982    -0.15680
F1577       F  0.35670581  0.82850172  0.07321608    -0.15690
F1578       F  0.39127431  0.85611016  0.13353076    -0.13320
C1579       C  0.49276435  0.51728787  0.18002747     0.24690
C1580       C  0.50066882  0.98566923  0.19239497    -0.23420
C1581       C  0.02533839  0.97330279  0.17623468     0.19600
C1582       C  0.04126827  0.99167985  0.14515829     0.24630
C1583       C  0.03343617  0.52418111  0.13056735    -0.23360
C1584       C  0.50916276  0.53671522  0.15177793     0.19530
F1585       F  0.50075422  0.56826900  0.14725860    -0.13320
F1586       F  0.46943523  0.53029254  0.19757914    -0.15680
F1587       F  0.06371116  0.97616984  0.12861834    -0.15690
F1588       F  0.03419298  0.94335437  0.19090171    -0.13320
C1589       C  0.48512870  0.82983583  0.53838455     0.24690
C1590       C  0.49580176  0.85556963  0.51203981    -0.23420
C1591       C  0.02411968  0.86125004  0.51332960     0.19600
C1592       C  0.04107211  0.84289942  0.54303942     0.24630
C1593       C  0.03028686  0.81799935  0.57232409    -0.23360
C1594       C  0.50200591  0.81020457  0.56558625     0.19530
F1595       F  0.49034898  0.78198650  0.58171921    -0.13320
F1596       F  0.45838878  0.82163547  0.53457987    -0.15680
F1597       F  0.06814602  0.84958288  0.54322107    -0.15690
F1598       F  0.03546109  0.88436814  0.48523096    -0.13320
C1599       C  0.34564415  0.52744587  0.49171181     0.24690
C1600       C  0.36205890  0.00078753  0.50502362    -0.23420
C1601       C  0.36015530  0.99068143  0.55162076     0.19600
C1602       C  0.34153723  0.00562646  0.58284334     0.24630
C1603       C  0.32274473  0.53025143  0.56845279    -0.23360
C1604       C  0.32722910  0.54230804  0.52249587     0.19530
F1605       F  0.31547058  0.57037992  0.50684623    -0.13320
F1606       F  0.34794992  0.54055340  0.44868510    -0.15680
F1607       F  0.34256022  0.99593486  0.62755905    -0.15690
F1608       F  0.37648265  0.96631877  0.56754622    -0.13320
C1609       C  0.39877442  0.93379234  0.93324591     0.24690
C1610       C  0.41112367  0.95120874  0.89620594    -0.23420
C1611       C  0.41155753  0.98638969  0.89948453     0.19600
C1612       C  0.40437601  0.50256858  0.94119575     0.24630
C1613       C  0.39564478  0.98437416  0.97983944    -0.23360
C1614       C  0.39244798  0.94985590  0.97475037     0.19530
F1615       F  0.38188850  0.93165587  0.00996475    -0.13320
F1616       F  0.39590213  0.90030867  0.93141778    -0.15680
F1617       F  0.40446075  0.53618461  0.94299010    -0.15690
F1618       F  0.41828432  0.50534479  0.86266620    -0.13320
C1619       C  0.44203032  0.94606972  0.77528033     0.24690
C1620       C  0.44421954  0.95114945  0.82397923    -0.23420
C1621       C  0.46494852  0.97380401  0.83866654     0.19600
C1622       C  0.98141899  0.99078351  0.80708737     0.24630
C1623       C  0.47753533  0.48685940  0.75936619    -0.23360
C1624       C  0.45708964  0.46480114  0.74415393     0.19530
F1625       F  0.45209077  0.45973665  0.69837669    -0.13320
F1626       F  0.42718678  0.92126242  0.75588866    -0.15680
F1627       F  0.00147591  0.01080604  0.82373478    -0.15690
F1628       F  0.96981153  0.97992543  0.88393421    -0.13320
C1629       C  0.38375257  0.92456493  0.81057415     0.24690
C1630       C  0.40505962  0.90825040  0.83479249    -0.23420
C1631       C  0.40496728  0.87299042  0.83131187     0.19600
C1632       C  0.38871201  0.85629654  0.79808489     0.24630
C1633       C  0.36980702  0.87334649  0.77107776    -0.23360
C1634       C  0.36672828  0.90744278  0.77916600     0.19530
F1635       F  0.34777373  0.92457487  0.75525498    -0.13320
F1636       F  0.38091509  0.95792781  0.81406069    -0.15680
F1637       F  0.39244982  0.82347365  0.79033382    -0.15690
F1638       F  0.41979743  0.85404161  0.86012581    -0.13320
C1639       C  0.45856471  0.92257202  0.93313868     0.24690
C1640       C  0.45011620  0.91135358  0.88820541    -0.23420
C1641       C  0.46638707  0.88598916  0.86823487     0.19600
C1642       C  0.48450433  0.86751300  0.89575727     0.24630
C1643       C  0.48869739  0.87621638  0.94260176    -0.23360
C1644       C  0.47708620  0.90552644  0.95906640     0.19530
F1645       F  0.48408226  0.91894352  0.00076052    -0.13320
F1646       F  0.45084040  0.95169112  0.95269937    -0.15680
F1647       F  0.99780317  0.84138584  0.87656507    -0.15690
F1648       F  0.46427523  0.87847397  0.82248603    -0.13320
C1649       C  0.92756177  0.43023134  0.86014732    -0.01390
O1650       O  0.98960543  0.48552454  0.41795762    -0.74200
O1651       O  0.96246688  0.46256497  0.47389564    -0.53110
C1652       C  0.98257760  0.48059292  0.45954803     0.79530
O1653       O  0.88544493  0.49035587  0.26907805    -0.58800
O1654       O  0.90949384  0.46133758  0.21444239    -0.51830
C1655       C  0.89238758  0.48336681  0.22720199     0.71540
O1656       O  0.87707402  0.49138163  0.42681177    -0.73360
O1657       O  0.89821288  0.46274678  0.48380213    -0.53920
C1658       C  0.88051424  0.48402037  0.46993263     0.77550
O1659       O  0.99113847  0.47663457  0.27003077    -0.58500
O1660       O  0.96523681  0.44973676  0.21606221    -0.51620
C1661       C  0.98500980  0.46881221  0.22826394     0.74140
Zr1662     Zr  0.97360108  0.46637222  0.34680955     2.54710
O1663       O  0.97756339  0.02626794  0.33959799    -0.79070
O1664       O  0.52252557  0.45716220  0.34716920    -0.92490
Zr1665     Zr  0.89457222  0.47704460  0.34897522     2.64680
O1666       O  0.90281659  0.03659979  0.35191037    -0.97440
O1667       O  0.84587945  0.48636149  0.34305272    -0.79500
O1668       O  0.93417439  0.47381212  0.39414740    -0.82860
O1669       O  0.93429272  0.47151741  0.30270464    -2.17570
O1670       O  0.99053175  0.36590173  0.28795241    -0.66250
O1671       O  0.96191902  0.38033787  0.22968510    -0.50810
C1672       C  0.98384477  0.36766358  0.24558431     0.72520
O1673       O  0.86771544  0.36595435  0.42097389    -0.59160
O1674       O  0.89340091  0.39132456  0.47714491    -0.51130
C1675       C  0.87342455  0.37287495  0.46297868     0.74320
O1676       O  0.86936332  0.36843721  0.26962959    -0.70550
O1677       O  0.89746236  0.38999673  0.21489680    -0.49230
C1678       C  0.87591681  0.37395816  0.22724316     0.75710
O1679       O  0.98369291  0.36179695  0.43415718    -0.65880
O1680       O  0.95891943  0.39057491  0.48761063    -0.53080
C1681       C  0.97840656  0.37070756  0.47594343     0.74090
Zr1682     Zr  0.96486081  0.36959042  0.35714462     2.77540
O1683       O  0.95002962  0.31236900  0.35167824    -0.96630
O1684       O  0.50852724  0.34179074  0.36305934    -0.77450
Zr1685     Zr  0.88614612  0.37929282  0.34746756     2.70070
O1686       O  0.88286396  0.31903842  0.34469856    -0.78700
O1687       O  0.83699236  0.38607862  0.34984726    -0.97780
Zr1688     Zr  0.92854208  0.42539777  0.44059931     2.21500
Zr1689     Zr  0.93116224  0.42041936  0.26104913     2.11130
O1690       O  0.92684908  0.37131113  0.30603373    -2.46470
O1691       O  0.92397976  0.37436037  0.39887474    -0.78490
O1692       O  0.97044524  0.41593222  0.30771478    -0.70690
O1693       O  0.88932780  0.42853938  0.39258893    -2.31640
O1694       O  0.96941783  0.42022304  0.39684856    -2.27850
O1695       O  0.89007801  0.42783570  0.30340829    -0.72450
H1696       H  0.93661605  0.49022477  0.28238779     0.79550
H1697       H  0.87295793  0.43030256  0.41091981     0.80640
H1698       H  0.92584439  0.35183978  0.28643965     0.82860
H1699       H  0.98535101  0.42010393  0.41622019     0.80470
H1700       H  0.83746255  0.46565817  0.35462257     0.43510
H1701       H  0.83301400  0.40240244  0.32539814     0.42480
H1702       H  0.89183282  0.31236838  0.31538514     0.42150
H1703       H  0.95371677  0.30611656  0.31908291     0.40090
H1704       H  0.52210338  0.35995287  0.36555939     0.43220
H1705       H  0.52605476  0.44403837  0.37531696     0.38000
H1706       H  0.95871671  0.03402709  0.33514021     0.44120
H1707       H  0.90683832  0.04286444  0.31951705     0.40540
H1708       H  0.96390844  0.30027215  0.36953220     0.45460
H1709       H  0.53063882  0.47920366  0.35382277     0.44180
H1710       H  0.88475383  0.04632675  0.35835245     0.44310
H1711       H  0.82952835  0.36483774  0.33792700     0.44670
O1712       O  0.98247779  0.23855985  0.92445284    -0.74200
O1713       O  0.95949608  0.21192824  0.98222144    -0.53110
C1714       C  0.97817263  0.23110509  0.96639541     0.79530
O1715       O  0.86755491  0.23565601  0.79018296    -0.58800
O1716       O  0.89109228  0.20912444  0.73255498    -0.51830
C1717       C  0.87229331  0.22828962  0.74802220     0.71540
O1718       O  0.86991750  0.23286638  0.94060973    -0.73360
O1719       O  0.89517831  0.20717141  0.99511362    -0.53920
C1720       C  0.87516471  0.22550126  0.98272089     0.77550
O1721       O  0.98101921  0.23573917  0.77533705    -0.58500
O1722       O  0.95591793  0.20764924  0.72157684    -0.51620
C1723       C  0.97532530  0.22754855  0.73352607     0.74140
Zr1724     Zr  0.96440853  0.22429622  0.85232292     2.54710
O1725       O  0.95864557  0.28416180  0.85011557    -0.79070
O1726       O  0.51372057  0.22958780  0.84659717    -0.92490
Zr1727     Zr  0.88560387  0.22202367  0.86296171     2.64680
O1728       O  0.88800621  0.28170796  0.87311042    -0.97440
O1729       O  0.83617646  0.22417623  0.86257870    -0.79500
O1730       O  0.92659054  0.22547610  0.90393490    -0.82860
O1731       O  0.92348326  0.22472918  0.81133660    -2.17570
O1732       O  0.98632012  0.12214705  0.78565447    -0.66250
O1733       O  0.95805232  0.14093171  0.72918839    -0.50810
C1734       C  0.97963554  0.12658132  0.74370873     0.72520
O1735       O  0.87807944  0.10652750  0.93649641    -0.59160
O1736       O  0.90330952  0.13442673  0.99084398    -0.51130
C1737       C  0.88601782  0.11236371  0.97822855     0.74320
O1738       O  0.86997422  0.11380236  0.77802608    -0.70550
O1739       O  0.89426973  0.13974430  0.72170718    -0.49230
C1740       C  0.87520334  0.12008491  0.73506196     0.75710
O1741       O  0.98026168  0.11265261  0.93497777    -0.65880
O1742       O  0.95924686  0.14346059  0.99072768    -0.53080
C1743       C  0.97626060  0.12140199  0.97722733     0.74090
Zr1744     Zr  0.96470506  0.12597300  0.85806793     2.77540
O1745       O  0.95606090  0.06678730  0.84965768    -0.96630
O1746       O  0.51298483  0.11367690  0.86320073    -0.77450
Zr1747     Zr  0.88584156  0.12438479  0.85751421     2.70070
O1748       O  0.88615341  0.06421631  0.85142019    -0.78700
O1749       O  0.83651435  0.12347409  0.86324362    -0.97780
Zr1750     Zr  0.92698769  0.17545255  0.94699512     2.21500
Zr1751     Zr  0.92442293  0.17422368  0.76802269     2.11130
O1752       O  0.92531321  0.12377336  0.81100688    -2.46470
O1753       O  0.92560764  0.12492435  0.90380011    -0.78490
O1754       O  0.96491173  0.17419033  0.81162301    -0.70690
O1755       O  0.88537762  0.17259069  0.90512628    -2.31640
O1756       O  0.96649601  0.17606949  0.89923411    -2.27850
O1757       O  0.88484682  0.17384590  0.81555879    -0.72450
H1758       H  0.92271840  0.24392866  0.79160647     0.79550
H1759       H  0.86981970  0.17139432  0.92552566     0.80640
H1760       H  0.92558540  0.10468195  0.79062553     0.82860
H1761       H  0.98308409  0.17608686  0.91700789     0.80470
H1762       H  0.83031490  0.20127730  0.86984308     0.43510
H1763       H  0.83033671  0.13910406  0.83926485     0.42480
H1764       H  0.89457464  0.05942080  0.82094710     0.42150
H1765       H  0.96296476  0.06116893  0.81835900     0.40090
H1766       H  0.52186879  0.13564268  0.86672205     0.43220
H1767       H  0.52103573  0.21414554  0.86988205     0.38000
H1768       H  0.95514585  0.29077040  0.88266756     0.44120
H1769       H  0.90439650  0.28829273  0.85552137     0.40540
H1770       H  0.96905139  0.05630919  0.87109490     0.45460
H1771       H  0.51806352  0.25200350  0.85879148     0.44180
H1772       H  0.87245425  0.29017737  0.85515252     0.44310
H1773       H  0.83114957  0.10132663  0.85127583     0.44670
O1774       O  0.70614249  0.47751586  0.96880992    -0.74200
O1775       O  0.74373528  0.46514623  0.92561246    -0.53110
C1776       C  0.73157444  0.47620431  0.96312576     0.79530
O1777       O  0.63111223  0.36991516  0.94381471    -0.58800
O1778       O  0.59611460  0.39078698  0.90160810    -0.51990
C1779       C  0.60609506  0.37457772  0.93574711     0.71540
O1780       O  0.71783202  0.37358439  0.95256679    -0.73360
O1781       O  0.75370675  0.39578470  0.91368040    -0.53920
C1782       C  0.74331873  0.37774290  0.94660660     0.77550
O1783       O  0.62672867  0.49312976  0.93572115    -0.58500
O1784       O  0.59405496  0.45992880  0.90441184    -0.51620
C1785       C  0.60222544  0.48306602  0.93249515     0.74140
Zr1786     Zr  0.67179405  0.47967571  0.91310167     2.54710
O1787       O  0.66280830  0.49977069  0.99144353    -0.79070
O1788       O  0.68257998  0.03778059  0.90107658    -0.92490
Zr1789     Zr  0.67500318  0.38202148  0.91654935     2.64680
O1790       O  0.67589363  0.37420087  0.99993817    -0.97440
O1791       O  0.67737820  0.32240674  0.90394734    -0.79500
O1792       O  0.69903221  0.43195404  0.91759036    -0.82860
O1793       O  0.64712689  0.42969575  0.91581062    -2.17570
O1794       O  0.63167757  0.48743537  0.75703067    -0.66250
O1795       O  0.59642295  0.46307222  0.79597870    -0.50810
C1796       C  0.60652966  0.48148462  0.76420347     0.72520
O1797       O  0.72093575  0.37394731  0.75621392    -0.59160
O1798       O  0.75503625  0.39473595  0.80201359    -0.51130
C1799       C  0.74585653  0.37882115  0.76625028     0.74320
O1800       O  0.63296225  0.36347298  0.75222073    -0.70550
O1801       O  0.59802206  0.39119406  0.78705691    -0.49230
C1802       C  0.60769752  0.37066021  0.75641834     0.75710
O1803       O  0.71914111  0.47793791  0.74252497    -0.65880
O1804       O  0.75338734  0.46521670  0.79256700    -0.53080
C1805       C  0.74427771  0.47684869  0.75334491     0.74090
Zr1806     Zr  0.67653284  0.47566947  0.78272474     2.77540
O1807       O  0.67592405  0.48221012  0.69895236    -0.96630
O1808       O  0.68283489  0.03536867  0.78844358    -0.77450
Zr1809     Zr  0.67622499  0.37855354  0.78613527     2.70070
O1810       O  0.67762303  0.36767077  0.70320046    -0.78700
O1811       O  0.67976478  0.31950363  0.80165265    -0.97780
Zr1812     Zr  0.73025870  0.43143130  0.85532675     2.21500
Zr1813     Zr  0.62013249  0.42658791  0.84735573     2.11130
O1814       O  0.64976526  0.42669028  0.78133509    -2.46470
O1815       O  0.70257327  0.42759202  0.78769785    -0.78490
O1816       O  0.64552545  0.47778352  0.84557202    -0.70690
O1817       O  0.70426019  0.38057487  0.85266762    -2.31640
O1818       O  0.70321131  0.48091948  0.85054243    -2.27850
O1819       O  0.64703715  0.37730133  0.85057604    -0.72450
H1820       H  0.63614506  0.43029712  0.94354241     0.79550
H1821       H  0.71599590  0.36149190  0.85382061     0.80640
H1822       H  0.63966680  0.42604043  0.75273486     0.82860
H1823       H  0.71445135  0.50063240  0.85042407     0.80470
H1824       H  0.69698651  0.31709204  0.90468468     0.43510
H1825       H  0.66070993  0.31152076  0.80311076     0.42480
H1826       H  0.67692780  0.38991250  0.68900752     0.42150
H1827       H  0.66265834  0.46548483  0.68764760     0.40090
H1828       H  0.67181696  0.04188139  0.81560340     0.43220
H1829       H  0.70047642  0.04073117  0.91615111     0.38000
H1830       H  0.65710339  0.47990418  0.00904885     0.44120
H1831       H  0.66163353  0.38900178  0.01248892     0.40540
H1832       H  0.66720978  0.50389249  0.69356899     0.45460
H1833       H  0.66978306  0.04966576  0.92175960     0.44180
H1834       H  0.66881156  0.35142767  0.00438916     0.44310
H1835       H  0.68703687  0.30982706  0.77258035     0.44670
C1836       C  0.67614061  0.17188414  0.86073564    -0.01390
C1837       C  0.67740043  0.42809431  0.35370664    -0.01390
C1838       C  0.93167702  0.18045177  0.35244132    -0.01390
O1839       O  0.99420859  0.12046321  0.66868913    -0.74200
O1840       O  0.51633299  0.09347079  0.72663848    -0.53110
C1841       C  0.49806556  0.11295227  0.71081795     0.79530
O1842       O  0.99174098  0.99207099  0.53455952    -0.58800
O1843       O  0.51980552  0.01410613  0.47928239    -0.51830
C1844       C  0.99922558  0.99669070  0.49314188     0.71540
O1845       O  0.99098246  0.99626266  0.68251489    -0.73360
O1846       O  0.51426284  0.02365458  0.73857588    -0.53920
C1847       C  0.49539380  0.00362830  0.72498543     0.77550
O1848       O  0.99927864  0.11673598  0.52121355    -0.58500
O1849       O  0.52226326  0.08595254  0.46767703    -0.51620
C1850       C  0.50412940  0.10772407  0.47939679     0.74140
Zr1851     Zr  0.51545736  0.10564205  0.59826417     2.54710
O1852       O  0.96781186  0.12130899  0.59440219    -0.79070
O1853       O  0.52965193  0.16275798  0.58868949    -0.92490
Zr1854     Zr  0.50820748  0.00832990  0.60667923     2.64680
O1855       O  0.95883225  0.01294295  0.60852851    -0.97440
O1856       O  0.50769840  0.44790966  0.60690201    -0.79500
O1857       O  0.50954902  0.05879506  0.64675246    -0.82860
O1858       O  0.51177997  0.05527768  0.55810037    -2.17570
O1859       O  0.61291407  0.11083250  0.53735212    -0.66250
O1860       O  0.58739911  0.08622295  0.48027522    -0.50810
C1861       C  0.60728358  0.10439834  0.49515677     0.72520
O1862       O  0.59707269  0.98906740  0.68800499    -0.59160
O1863       O  0.57090062  0.01557947  0.74225652    -0.51130
C1864       C  0.58957983  0.99556300  0.72975990     0.74320
O1865       O  0.60571837  0.98509664  0.53127475    -0.70550
O1866       O  0.58550502  0.01520298  0.47433598    -0.49230
C1867       C  0.60294724  0.99369276  0.48856378     0.75710
O1868       O  0.60796188  0.11127942  0.68913892    -0.65880
O1869       O  0.58096794  0.08551812  0.74223669    -0.53080
C1870       C  0.60109186  0.10440153  0.73097345     0.74090
Zr1871     Zr  0.59389533  0.09755357  0.61062872     2.77540
O1872       O  0.64305791  0.09196065  0.61652651    -0.96630
O1873       O  0.59591274  0.15790671  0.61129312    -0.77450
Zr1874     Zr  0.58686440  0.99969166  0.60773002     2.70070
O1875       O  0.63543275  0.98941357  0.61233340    -0.78700
O1876       O  0.57740675  0.44039129  0.60698103    -0.97780
Zr1877     Zr  0.54817928  0.05473826  0.69496858     2.21500
Zr1878     Zr  0.55291616  0.05113111  0.51520349     2.11130
O1879       O  0.59169171  0.04854896  0.56469187    -2.46470
O1880       O  0.58988477  0.04870077  0.65388165    -0.78490
O1881       O  0.55671095  0.10167447  0.55804172    -0.70690
O1882       O  0.54671770  0.00373308  0.65288907    -2.31640
O1883       O  0.55263159  0.10420473  0.65090819    -2.27850
O1884       O  0.54802271  0.00217000  0.56049560    -0.72450
H1885       H  0.99601864  0.05589362  0.53831323     0.79550
H1886       H  0.54477442  0.48486916  0.67305024     0.80640
H1887       H  0.60828234  0.04714329  0.54689758     0.82860
H1888       H  0.55315856  0.12366864  0.67058565     0.80470
H1889       H  0.51484104  0.44163877  0.63760018     0.43510
H1890       H  0.56935604  0.43589446  0.57616878     0.42480
H1891       H  0.64391169  0.01159022  0.60903326     0.42150
H1892       H  0.64825663  0.07692072  0.59078605     0.40090
H1893       H  0.58989160  0.16454925  0.58004058     0.43220
H1894       H  0.54127332  0.16685536  0.61595716     0.38000
H1895       H  0.95783474  0.09995781  0.59229829     0.44120
H1896       H  0.95425260  0.02759174  0.58237177     0.40540
H1897       H  0.65045389  0.11388698  0.60760042     0.45460
H1898       H  0.01296411  0.17579576  0.59440081     0.44180
H1899       H  0.95195856  0.99077958  0.59913461     0.44310
H1900       H  0.59554334  0.42991733  0.60558319     0.44670
O1901       O  0.00175299  0.36426230  0.01871628    -0.74200
O1902       O  0.52046500  0.33329026  0.96175318    -0.53110
C1903       C  0.50474225  0.35641660  0.97584768     0.79530
O1904       O  0.61576724  0.36301523  0.17097995    -0.58800
O1905       O  0.58902854  0.34101428  0.22787299    -0.51830
C1906       C  0.60970876  0.35790945  0.21396867     0.71540
O1907       O  0.59856459  0.36622275  0.01280616    -0.73360
O1908       O  0.57125640  0.33966630  0.96022411    -0.53920
C1909       C  0.58970724  0.36044863  0.97147182     0.77550
O1910       O  0.99553549  0.35875834  0.17089297    -0.58500
O1911       O  0.52469048  0.34164290  0.22709298    -0.51620
C1912       C  0.50273554  0.35521968  0.21275442     0.74140
Zr1913     Zr  0.51596202  0.35418829  0.09771157     2.54710
O1914       O  0.52489826  0.41329911  0.10250442    -0.79070
O1915       O  0.96821856  0.37009284  0.09679676    -0.92490
Zr1916     Zr  0.59495944  0.35189100  0.09435982     2.64680
O1917       O  0.59714786  0.41219425  0.09724363    -0.97440
O1918       O  0.64392273  0.34966098  0.08370227    -0.79500
O1919       O  0.55426931  0.35213690  0.05069640    -0.82860
O1920       O  0.55635076  0.35564947  0.14271722    -2.17570
O1921       O  0.99478521  0.25201401  0.18670277    -0.66250
O1922       O  0.52567189  0.27332776  0.23746429    -0.50810
C1923       C  0.50334380  0.25764017  0.22787215     0.72520
O1924       O  0.60531654  0.23936539  0.01549971    -0.59160
O1925       O  0.58029907  0.26725481  0.96246048    -0.51130
C1926       C  0.59905529  0.24684865  0.97380784     0.74320
O1927       O  0.61176322  0.24312385  0.16630002    -0.70550
O1928       O  0.58948111  0.27107997  0.22403035    -0.49230
C1929       C  0.60775198  0.25118033  0.20852395     0.75710
O1930       O  0.99282173  0.23839321  0.04017429    -0.65880
O1931       O  0.51517965  0.26448721  0.98122954    -0.53080
C1932       C  0.49663426  0.24550244  0.99799407     0.74090
Zr1933     Zr  0.51277204  0.25649324  0.10907101     2.77540
O1934       O  0.51610160  0.19714332  0.12236671    -0.96630
O1935       O  0.96335776  0.25369214  0.11092577    -0.77450
Zr1936     Zr  0.59152561  0.25377843  0.09347042     2.70070
O1937       O  0.58040588  0.19507114  0.09340328    -0.78700
O1938       O  0.64004904  0.24321547  0.08474301    -0.97780
Zr1939     Zr  0.54992201  0.30083245  0.00995590     2.21500
Zr1940     Zr  0.55649494  0.30611875  0.18784548     2.11130
O1941       O  0.55473861  0.25481043  0.14722498    -2.46470
O1942       O  0.54946869  0.25185071  0.05507563    -0.78490
O1943       O  0.51519595  0.30745913  0.14678541    -0.70690
O1944       O  0.59257101  0.30241919  0.04914209    -2.31640
O1945       O  0.51114809  0.30335034  0.05924494    -2.27850
O1946       O  0.59501475  0.30314806  0.13819339    -0.72450
H1947       H  0.55710830  0.37524772  0.16211916     0.79550
H1948       H  0.60766567  0.30220058  0.02768921     0.80640
H1949       H  0.55557262  0.23642906  0.16835436     0.82860
H1950       H  0.99425469  0.30354817  0.04231540     0.80470
H1951       H  0.64865001  0.32630507  0.08993854     0.43510
H1952       H  0.64920208  0.25947218  0.10540364     0.42480
H1953       H  0.57415075  0.19011719  0.06152860     0.42150
H1954       H  0.52468646  0.19476466  0.15308401     0.40090
H1955       H  0.95755511  0.27715084  0.11105159     0.43220
H1956       H  0.95944595  0.35500235  0.07405538     0.38000
H1957       H  0.54271886  0.41595940  0.08698632     0.44120
H1958       H  0.59390930  0.41802997  0.13014824     0.40540
H1959       H  0.99707706  0.19007656  0.12763327     0.45460
H1960       H  0.96789396  0.39218976  0.08216802     0.44180
H1961       H  0.61656282  0.41758540  0.09192753     0.44310
H1962       H  0.64313095  0.22140633  0.09924335     0.44670
O1963       O  0.85378987  0.49169987  0.01011230    -0.74200
O1964       O  0.88744032  0.02000574  0.04767156    -0.53110
C1965       C  0.87846256  0.00015780  0.01545918     0.79530
O1966       O  0.76381753  0.10243548  0.99530534    -0.58800
O1967       O  0.72888394  0.08035464  0.03790276    -0.51830
C1968       C  0.73845360  0.09681003  0.00261142     0.71540
O1969       O  0.85068652  0.07867863  0.00314511    -0.73360
O1970       O  0.88373125  0.08971463  0.05375498    -0.53920
C1971       C  0.87306124  0.09296576  0.01371610     0.77550
O1972       O  0.77233877  0.48218884  0.99929764    -0.58500
O1973       O  0.73600824  0.00723252  0.03461884    -0.51620
C1974       C  0.74737451  0.98902300  0.00213502     0.74140
Zr1975     Zr  0.81015911  0.99936269  0.04138831     2.54710
O1976       O  0.81378594  0.99165803  0.95790762    -0.79070
O1977       O  0.81242929  0.44017732  0.05617975    -0.92490
Zr1978     Zr  0.80735824  0.09629145  0.03406403     2.64680
O1979       O  0.81296368  0.11895805  0.95664631    -0.97440
O1980       O  0.81430566  0.15556915  0.04628800    -0.79500
O1981       O  0.83487192  0.04883618  0.03998597    -0.82860
O1982       O  0.78200262  0.04640817  0.03469728    -2.17570
O1983       O  0.76216539  0.49096778  0.20113299    -0.66250
O1984       O  0.72673883  0.01216052  0.16143885    -0.50810
C1985       C  0.73670163  0.99534051  0.19611575     0.72520
O1986       O  0.84693096  0.11100465  0.20424435    -0.59160
O1987       O  0.88380157  0.08925778  0.16810115    -0.51130
C1988       C  0.87268808  0.10725316  0.20050663     0.74320
O1989       O  0.75968488  0.11024238  0.19349679    -0.70550
O1990       O  0.72612237  0.08272151  0.15361917    -0.49230
C1991       C  0.73489552  0.10223138  0.18639811     0.75710
O1992       O  0.85054586  0.49303857  0.20040349    -0.65880
O1993       O  0.88594391  0.01639708  0.16060859    -0.53080
C1994       C  0.87571956  0.99852073  0.19303367     0.74090
Zr1995     Zr  0.80638331  0.00369268  0.17171304     2.77540
O1996       O  0.80814561  0.00906991  0.25578726    -0.96630
O1997       O  0.80655257  0.44335127  0.17408360    -0.77450
Zr1998     Zr  0.80449897  0.10046655  0.16518109     2.70070
O1999       O  0.79976387  0.11682933  0.24606454    -0.78700
O2000       O  0.80703219  0.15830183  0.14321482    -0.97780
Zr2001     Zr  0.86231322  0.05258552  0.10779642     2.21500
Zr2002     Zr  0.75115212  0.04591330  0.09896727     2.11130
O2003       O  0.77903053  0.05073770  0.16670957    -2.46470
O2004       O  0.83199905  0.05333017  0.17229030    -0.78490
O2005       O  0.77947176  0.99771274  0.10431394    -0.70690
O2006       O  0.83439970  0.10151106  0.10178107    -2.31640
O2007       O  0.83679942  0.00157809  0.10845311    -2.27850
O2008       O  0.77703058  0.09721136  0.09795387    -0.72450
H2009       H  0.77284060  0.04478537  0.00533688     0.79550
H2010       H  0.84540326  0.12142338  0.10184712     0.80640
H2011       H  0.76801614  0.05109137  0.19435891     0.82860
H2012       H  0.84863341  0.48259815  0.10976275     0.80470
H2013       H  0.83227587  0.16036746  0.03222717     0.43510
H2014       H  0.78815462  0.16393984  0.13473458     0.42480
H2015       H  0.80012894  0.09568173  0.26322977     0.42150
H2016       H  0.79075371  0.01935352  0.26524423     0.40090
H2017       H  0.78862717  0.43650552  0.16163414     0.43220
H2018       H  0.81963143  0.43803028  0.08789630     0.38000
H2019       H  0.81426676  0.01444134  0.94538397     0.44120
H2020       H  0.80416366  0.10255989  0.93577199     0.40540
H2021       H  0.80711561  0.48606375  0.26738531     0.45460
H2022       H  0.82748479  0.43252127  0.03605567     0.44180
H2023       H  0.80116281  0.13872874  0.95552085     0.44310
H2024       H  0.81056795  0.17022784  0.17267347     0.44670
C2025       C  0.80040840  0.30410853  0.09774765    -0.01390
C2026       C  0.54920235  0.29829133  0.60688298    -0.01390
O2027       O  0.61788847  0.23254127  0.43367237    -0.74200
O2028       O  0.64592921  0.20907970  0.48671671    -0.53110
C2029       C  0.62471807  0.22653097  0.47576050     0.79530
O2030       O  0.62168095  0.10955362  0.26770116    -0.58800
O2031       O  0.64208523  0.14213551  0.21362590    -0.51830
C2032       C  0.62548858  0.11876962  0.22556061     0.71540
O2033       O  0.61941279  0.11224589  0.41937101    -0.73360
O2034       O  0.64466348  0.13797838  0.47585549    -0.53920
C2035       C  0.62506810  0.11916052  0.46139261     0.77550
O2036       O  0.62039846  0.24209701  0.28381262    -0.58500
O2037       O  0.64264152  0.21471660  0.22542094    -0.51620
C2038       C  0.62496177  0.23525816  0.24134075     0.74140
Zr2039     Zr  0.63698424  0.22371451  0.35617130     2.54710
O2040       O  0.58762131  0.22752554  0.35558148    -0.79070
O2041       O  0.64392754  0.28335006  0.36414788    -0.92490
Zr2042     Zr  0.63682236  0.12587259  0.34543827     2.64680
O2043       O  0.58728812  0.12400530  0.34549509    -0.97440
O2044       O  0.64183426  0.06598621  0.34371358    -0.79500
O2045       O  0.63751209  0.17318107  0.39537754    -0.82860
O2046       O  0.63499307  0.17635723  0.30596014    -2.17570
O2047       O  0.72925499  0.24225634  0.26810035    -0.66250
O2048       O  0.70530912  0.21295753  0.21384105    -0.50810
C2049       C  0.72329926  0.23486691  0.22592634     0.72520
O2050       O  0.73258009  0.10911399  0.42516237    -0.59160
O2051       O  0.71019200  0.13820445  0.48170134    -0.51130
C2052       C  0.72817278  0.11674867  0.46842849     0.74320
O2053       O  0.72432000  0.11010136  0.26420904    -0.70550
O2054       O  0.69920921  0.13747808  0.21004557    -0.49230
C2055       C  0.71715702  0.11630069  0.22201582     0.75710
O2056       O  0.73627851  0.23722820  0.41868141    -0.65880
O2057       O  0.71244153  0.21034043  0.47547329    -0.53080
C2058       C  0.73149752  0.22999744  0.46094453     0.74090
Zr2059     Zr  0.71643528  0.22352689  0.34546861     2.77540
O2060       O  0.76590473  0.22339011  0.34069065    -0.96630
O2061       O  0.71234954  0.28354039  0.34750466    -0.77450
Zr2062     Zr  0.71627740  0.12509199  0.34606832     2.70070
O2063       O  0.76562798  0.12629552  0.34013733    -0.78700
O2064       O  0.71459945  0.06474325  0.34701107    -0.97780
Zr2065     Zr  0.67812877  0.17412106  0.43979048     2.21500
Zr2066     Zr  0.67448894  0.17632070  0.25794250     2.11130
O2067       O  0.71613110  0.17438938  0.30052462    -2.46470
O2068       O  0.71721279  0.17444877  0.39063510    -0.78490
O2069       O  0.67504144  0.22521505  0.30480026    -0.70690
O2070       O  0.67664184  0.12467417  0.39254840    -2.31640
O2071       O  0.67833660  0.22453445  0.39714947    -2.27850
O2072       O  0.67626763  0.12573057  0.30000623    -0.72450
H2073       H  0.61855256  0.17666843  0.28778418     0.79550
H2074       H  0.67644619  0.10510490  0.41161959     0.80640
H2075       H  0.73154568  0.17438482  0.27972850     0.82860
H2076       H  0.67915318  0.24358046  0.41758326     0.80470
H2077       H  0.65113051  0.06112571  0.31400346     0.43510
H2078       H  0.70398057  0.05841699  0.31921246     0.42480
H2079       H  0.77099495  0.14770458  0.35449908     0.42150
H2080       H  0.77022438  0.20992794  0.31285338     0.40090
H2081       H  0.69886359  0.28867166  0.32325081     0.43220
H2082       H  0.64412111  0.28767306  0.39793346     0.38000
H2083       H  0.58124824  0.20420012  0.35574622     0.44120
H2084       H  0.58171934  0.13848441  0.31972479     0.40540
H2085       H  0.77095229  0.24634253  0.33215423     0.45460
H2086       H  0.62668943  0.29319618  0.35342750     0.44180
H2087       H  0.58257935  0.10128398  0.33494664     0.44310
H2088       H  0.73341225  0.05782727  0.33967032     0.44670
O2089       O  0.85873466  0.23574178  0.67312620    -0.74200
O2090       O  0.83645648  0.26312128  0.73146078    -0.53110
C2091       C  0.85462891  0.24330919  0.71541770     0.79530
O2092       O  0.86209373  0.36355340  0.53919822    -0.58800
O2093       O  0.83567144  0.33967516  0.48262213    -0.51830
C2094       C  0.85573420  0.35789725  0.49708518     0.71540
O2095       O  0.85936756  0.36434761  0.69125675    -0.73360
O2096       O  0.83644855  0.33366881  0.74486406    -0.53920
C2097       C  0.85415316  0.35595948  0.73344293     0.77550
O2098       O  0.85555480  0.23563801  0.52399462    -0.58500
O2099       O  0.83409015  0.26775385  0.47093769    -0.51620
C2100       C  0.85180253  0.24538744  0.48216569     0.74140
Zr2101     Zr  0.83866589  0.24943187  0.60168589     2.54710
O2102       O  0.88688981  0.23658507  0.59719922    -0.79070
O2103       O  0.82501034  0.19134998  0.59959715    -0.92490
Zr2104     Zr  0.84518117  0.34718237  0.61267664     2.64680
O2105       O  0.89417729  0.33942507  0.61708501    -0.97440
O2106       O  0.84676643  0.40749898  0.61241514    -0.79500
O2107       O  0.84299075  0.29659366  0.65198436    -0.82860
O2108       O  0.84221543  0.29989734  0.56255187    -2.17570
O2109       O  0.74338478  0.23966329  0.53745299    -0.66250
O2110       O  0.76820494  0.26563162  0.48088072    -0.50810
C2111       C  0.74899517  0.24605607  0.49518441     0.72520
O2112       O  0.75696104  0.37015188  0.68978761    -0.59160
O2113       O  0.78007359  0.34148658  0.74527409    -0.51130
C2114       C  0.76335401  0.36371173  0.73208895     0.74320
O2115       O  0.74814133  0.36886548  0.53175693    -0.70550
O2116       O  0.76983856  0.33906647  0.47526124    -0.49230
C2117       C  0.75204314  0.36074573  0.48874095     0.75710
O2118       O  0.74563856  0.24137368  0.69018738    -0.65880
O2119       O  0.77160494  0.26547738  0.74598612    -0.53080
C2120       C  0.75196944  0.24591275  0.73306036     0.74090
Zr2121     Zr  0.75990222  0.25647191  0.61186199     2.77540
O2122       O  0.71077813  0.26368058  0.61456841    -0.96630
O2123       O  0.75693796  0.19630962  0.61431130    -0.77450
Zr2124     Zr  0.76550737  0.35370835  0.60962938     2.70070
O2125       O  0.71625930  0.35619834  0.61669769    -0.78700
O2126       O  0.76916642  0.41331049  0.60191891    -0.97780
Zr2127     Zr  0.80359760  0.30042358  0.69986725     2.21500
Zr2128     Zr  0.80182361  0.30270410  0.51722468     2.11130
O2129       O  0.76214638  0.30478113  0.56534564    -2.46470
O2130       O  0.76249052  0.30539534  0.65656048    -0.78490
O2131       O  0.79792547  0.25254451  0.56014826    -0.70690
O2132       O  0.80524658  0.35068250  0.65636031    -2.31640
O2133       O  0.80074060  0.25123063  0.65333052    -2.27850
O2134       O  0.80569476  0.35151123  0.56483720    -0.72450
H2135       H  0.85824087  0.29911380  0.54322264     0.79550
H2136       H  0.80684391  0.37000662  0.67610606     0.80640
H2137       H  0.74590637  0.30569585  0.54672876     0.82860
H2138       H  0.80027778  0.23173138  0.67251013     0.80470
H2139       H  0.82795926  0.41440156  0.61977710     0.43510
H2140       H  0.77786490  0.41659084  0.57132383     0.42480
H2141       H  0.71116506  0.33554487  0.63293285     0.42150
H2142       H  0.70629395  0.27641368  0.58646908     0.40090
H2143       H  0.76991332  0.18957369  0.63856072     0.43220
H2144       H  0.82709973  0.18366285  0.63184539     0.38000
H2145       H  0.89608168  0.25848864  0.59771044     0.44120
H2146       H  0.89882370  0.32578329  0.58957443     0.40540
H2147       H  0.70321309  0.24125653  0.60861861     0.45460
H2148       H  0.83970714  0.18013675  0.58214280     0.44180
H2149       H  0.90202493  0.36154757  0.61045172     0.44310
H2150       H  0.75022826  0.42088981  0.59776987     0.44670
C2151       C  0.80207687  0.04811914  0.60315862    -0.01390
C2152       C  0.55038029  0.04636405  0.09539782    -0.01390
C2153       C  0.58077439  0.10067242  0.11962677     0.24690
C2154       C  0.57332125  0.06628187  0.12485270    -0.23420
C2155       C  0.58940481  0.04969345  0.15862713     0.19600
C2156       C  0.60566495  0.06662813  0.19107199     0.24630
C2157       C  0.60936518  0.10090367  0.18902187    -0.23360
C2158       C  0.59781456  0.11739864  0.15163322     0.19530
F2159       F  0.60292790  0.15016226  0.14616972    -0.13320
F2160       F  0.57344099  0.11878135  0.08243374    -0.15680
F2161       F  0.61914840  0.04884091  0.22340021    -0.15690
F2162       F  0.59187394  0.01665532  0.15920390    -0.13320
C2163       C  0.75806670  0.11791448  0.54135723     0.24690
C2164       C  0.74513705  0.09977736  0.50549954    -0.23420
C2165       C  0.74851954  0.06517034  0.50570996     0.19600
C2166       C  0.76486167  0.04945319  0.53927551     0.24630
C2167       C  0.78023160  0.06766908  0.57289955    -0.23360
C2168       C  0.77511728  0.10239499  0.57449333     0.19530
F2169       F  0.78578475  0.12170932  0.60851784    -0.13320
F2170       F  0.75491458  0.15124144  0.54339491    -0.15680
F2171       F  0.76709906  0.01596137  0.53687541    -0.15690
F2172       F  0.73579097  0.04621199  0.47324623    -0.13320
C2173       C  0.56029942  0.25434280  0.54181878     0.24690
C2174       C  0.57002432  0.27778415  0.57502247    -0.23420
C2175       C  0.59887143  0.28343304  0.57401058     0.19600
C2176       C  0.61651875  0.26492448  0.54489960     0.24630
C2177       C  0.60649021  0.24159272  0.51283628    -0.23360
C2178       C  0.57801681  0.23697919  0.51145399     0.19530
F2179       F  0.56709848  0.21565057  0.47992607    -0.13320
F2180       F  0.53323742  0.24831491  0.53808600    -0.15680
F2181       F  0.64356098  0.27183656  0.54568310    -0.15690
F2182       F  0.61057480  0.30855547  0.59831633    -0.13320
C2183       C  0.73534658  0.28344062  0.17446846     0.24690
C2184       C  0.74023463  0.25115087  0.18960502    -0.23420
C2185       C  0.76391930  0.23557453  0.17473333     0.19600
C2186       C  0.78269746  0.25146769  0.14545179     0.24630
C2187       C  0.77882026  0.28474295  0.12974388    -0.23360
C2188       C  0.75387579  0.29975086  0.14477934     0.19530
F2189       F  0.74748675  0.33104813  0.13178801    -0.13320
F2190       F  0.71281842  0.29966590  0.18931530    -0.15680
F2191       F  0.80472849  0.23332462  0.13412339    -0.15690
F2192       F  0.76950766  0.20485738  0.19071508    -0.13320
C2193       C  0.88871811  0.16628893  0.30152857     0.24690
C2194       C  0.91628725  0.16008896  0.31305012    -0.23420
C2195       C  0.93039215  0.13838429  0.28194893     0.19600
C2196       C  0.91687359  0.12096775  0.24565196     0.24630
C2197       C  0.88901518  0.12588868  0.23709086    -0.23360
C2198       C  0.87567770  0.14975937  0.26511900     0.19530
F2199       F  0.84960247  0.15874194  0.25658434    -0.13320
F2200       F  0.87404716  0.19054328  0.32237468    -0.15680
F2201       F  0.93120488  0.09944390  0.21892355    -0.15690
F2202       F  0.95751482  0.13368518  0.28675246    -0.13320
C2203       C  0.95789613  0.24691241  0.26471074     0.24690
C2204       C  0.98629852  0.24319959  0.26533431    -0.23420
C2205       C  0.49736407  0.21977971  0.29497412     0.19600
C2206       C  0.98057237  0.19950615  0.32219987     0.24630
C2207       C  0.95161516  0.20388839  0.32421132    -0.23360
C2208       C  0.94092869  0.22785844  0.29352400     0.19530
F2209       F  0.91371966  0.23248853  0.29036220    -0.13320
F2210       F  0.94638218  0.26860174  0.23498035    -0.15680
F2211       F  0.99321100  0.17339034  0.34179066    -0.15690
F2212       F  0.52449995  0.21373996  0.29370956    -0.13320
C2213       C  0.96955447  0.10696401  0.41435530     0.24690
C2214       C  0.98698035  0.12462564  0.44425359    -0.23420
C2215       C  0.98374506  0.15910899  0.44781624     0.19600
C2216       C  0.96482267  0.17578813  0.42062604     0.24630
C2217       C  0.94878608  0.15889915  0.38691965    -0.23360
C2218       C  0.95029806  0.12362858  0.38679704     0.19530
F2219       F  0.93238549  0.10474371  0.36254931    -0.13320
F2220       F  0.46992620  0.07335159  0.41410257    -0.15680
F2221       F  0.96370318  0.20926467  0.42501169    -0.15690
F2222       F  0.99919863  0.17700734  0.47799429    -0.13320
C2223       C  0.90993797  0.23400687  0.39397002     0.24690
C2224       C  0.91060165  0.19913329  0.38575431    -0.23420
C2225       C  0.89116505  0.18023061  0.41123089     0.19600
C2226       C  0.87159823  0.19525974  0.44051307     0.24630
C2227       C  0.87018100  0.22993904  0.44587387    -0.23360
C2228       C  0.88985007  0.24897617  0.42245198     0.19530
F2229       F  0.89092179  0.28222169  0.42985315    -0.13320
F2230       F  0.92979355  0.25395561  0.37768952    -0.15680
F2231       F  0.85393317  0.17561089  0.46406668    -0.15690
F2232       F  0.89078735  0.14669692  0.40720623    -0.13320
C2233       C  0.61448307  0.39091316  0.28654469     0.24690
C2234       C  0.62695885  0.37334548  0.25057563    -0.23420
C2235       C  0.65539956  0.37090777  0.25041959     0.19600
C2236       C  0.67105012  0.38603181  0.28562671     0.24630
C2237       C  0.65888652  0.40525130  0.32173334    -0.23360
C2238       C  0.62979300  0.40746425  0.32030312     0.19530
F2239       F  0.61522469  0.42798134  0.34798834    -0.13320
F2240       F  0.58700726  0.39429441  0.28716970    -0.15680
F2241       F  0.69848220  0.38305154  0.28308144    -0.15690
F2242       F  0.66813525  0.35373469  0.21616573    -0.13320
C2243       C  0.67868124  0.46896809  0.28204468     0.24690
C2244       C  0.69303498  0.45050851  0.31653494    -0.23420
C2245       C  0.72142333  0.44780244  0.30879844     0.19600
C2246       C  0.73425062  0.46163694  0.27022925     0.24630
C2247       C  0.72016577  0.47991661  0.23585667    -0.23360
C2248       C  0.69196889  0.48352733  0.24299808     0.19530
F2249       F  0.67699894  0.50052617  0.21187683    -0.13320
F2250       F  0.65127808  0.47199902  0.28509393    -0.15680
F2251       F  0.76126730  0.45535025  0.26662124    -0.15690
F2252       F  0.73770086  0.42921659  0.33581870    -0.13320
C2253       C  0.63655372  0.99710506  0.42205570     0.24690
C2254       C  0.62177785  0.47796127  0.45407525    -0.23420
C2255       C  0.62681944  0.44384737  0.45552962     0.19600
C2256       C  0.64485151  0.42887746  0.42413731     0.24630
C2257       C  0.65897564  0.44745777  0.38960086    -0.23360
C2258       C  0.65535693  0.48238898  0.39107841     0.19530
F2259       F  0.67045820  0.00286514  0.36428044    -0.13320
F2260       F  0.63376537  0.03052345  0.42248162    -0.15680
F2261       F  0.64720682  0.39540337  0.42579410    -0.15690
F2262       F  0.61355193  0.42454285  0.48670789    -0.13320
C2263       C  0.73122001  0.41182291  0.45171100     0.24690
C2264       C  0.73425949  0.37720507  0.45275110    -0.23420
C2265       C  0.71861844  0.35839478  0.42118479     0.19600
C2266       C  0.70040233  0.37350131  0.38969658     0.24630
C2267       C  0.69795893  0.40869032  0.38676715    -0.23360
C2268       C  0.71388218  0.42718291  0.41940517     0.19530
F2269       F  0.71281254  0.46079775  0.41985813    -0.13320
F2270       F  0.74539396  0.43114217  0.48195667    -0.15680
F2271       F  0.68425571  0.35298517  0.36449394    -0.15690
F2272       F  0.71970495  0.32484582  0.42285273    -0.13320
C2273       C  0.62224977  0.15442860  0.76581132     0.24690
C2274       C  0.61773262  0.12029451  0.76767015    -0.23420
C2275       C  0.63137327  0.10179748  0.80127412     0.19600
C2276       C  0.65035932  0.11707133  0.83132980     0.24630
C2277       C  0.65617144  0.15159007  0.82837932    -0.23360
C2278       C  0.64078153  0.16981144  0.79544093     0.19530
F2279       F  0.64423623  0.20303084  0.79089155    -0.13320
F2280       F  0.60858816  0.17316415  0.73478167    -0.15680
F2281       F  0.66173628  0.09801206  0.86418033    -0.15690
F2282       F  0.62664495  0.06871789  0.80436227    -0.13320
C2283       C  0.65286169  0.22944668  0.88310795     0.24690
C2284       C  0.65486262  0.19437514  0.88632253    -0.23420
C2285       C  0.63445220  0.17790728  0.91311847     0.19600
C2286       C  0.61512320  0.19530452  0.93825636     0.24630
C2287       C  0.61484141  0.22976496  0.93772475    -0.23360
C2288       C  0.63316168  0.24680454  0.90905437     0.19530
F2289       F  0.63259299  0.28038522  0.90758951    -0.13320
F2290       F  0.66903067  0.24728750  0.85452383    -0.15680
F2291       F  0.59726230  0.17830339  0.96525657    -0.15690
F2292       F  0.63422084  0.14444984  0.91762283    -0.13320
C2293       C  0.71031752  0.12566591  0.88597164     0.24690
C2294       C  0.69221593  0.15139284  0.89876585    -0.23420
C2295       C  0.69103306  0.15875966  0.94753805     0.19600
C2296       C  0.70327339  0.13841171  0.98074563     0.24630
C2297       C  0.71997968  0.11213080  0.96755407    -0.23360
C2298       C  0.72411611  0.10678377  0.91960906     0.19530
F2299       F  0.74210270  0.08347969  0.90515730    -0.13320
F2300       F  0.71491253  0.11880302  0.84057357    -0.15680
F2301       F  0.70092376  0.14664072  0.02626678    -0.15690
F2302       F  0.68002858  0.18716924  0.96433132    -0.13320
C2303       C  0.70246388  0.18094204  0.78159905     0.24690
C2304       C  0.69822535  0.19008612  0.82894494    -0.23420
C2305       C  0.71642309  0.21482442  0.84616498     0.19600
C2306       C  0.73424712  0.23283734  0.81622333     0.24630
C2307       C  0.73508928  0.22626727  0.76797414    -0.23360
C2308       C  0.71923893  0.19928315  0.75201334     0.19530
F2309       F  0.72031590  0.18934449  0.70699213    -0.13320
F2310       F  0.69156139  0.15296288  0.76280403    -0.15680
F2311       F  0.75034204  0.25695700  0.83458220    -0.15690
F2312       F  0.71652091  0.22225293  0.89206302    -0.13320
C2313       C  0.56110872  0.35467577  0.65260050     0.24690
C2314       C  0.56477140  0.32000696  0.64435911    -0.23420
C2315       C  0.58080061  0.30299216  0.67750158     0.19600
C2316       C  0.59298392  0.31932815  0.71499449     0.24630
C2317       C  0.58971014  0.35346619  0.72215147    -0.23360
C2318       C  0.57353834  0.37094566  0.69073562     0.19530
F2319       F  0.57031198  0.40413279  0.69622892    -0.13320
F2320       F  0.54448774  0.37309723  0.62599878    -0.15680
F2321       F  0.60854306  0.30150970  0.74444355    -0.15690
F2322       F  0.58500170  0.26988184  0.67341548    -0.13320
C2323       C  0.55706668  0.49386494  0.03768741     0.24690
C2324       C  0.56446414  0.02666898  0.05374187    -0.23420
C2325       C  0.58114186  0.04483230  0.02255676     0.19600
C2326       C  0.58997067  0.03175659  0.98037453     0.24630
C2327       C  0.58428135  0.49891290  0.96744087    -0.23360
C2328       C  0.56764905  0.48015528  0.99648137     0.19530
F2329       F  0.56179233  0.44812613  0.98540845    -0.13320
F2330       F  0.53757703  0.47520847  0.05808658    -0.15680
F2331       F  0.60550540  0.05128272  0.95254259    -0.15690
F2332       F  0.58878428  0.07630273  0.03119606    -0.13320
C2333       C  0.78498480  0.36988058  0.99840782     0.24690
C2334       C  0.75987991  0.35902390  0.98144055    -0.23420
C2335       C  0.74802549  0.33102853  0.00262696     0.19600
C2336       C  0.75995752  0.31536155  0.04025027     0.24630
C2337       C  0.78552299  0.32562800  0.05883662    -0.23360
C2338       C  0.79750184  0.35389563  0.03628767     0.19530
F2339       F  0.82093887  0.36780539  0.05076419    -0.13320
F2340       F  0.79723881  0.39666835  0.97913113    -0.15680
F2341       F  0.74666970  0.28790424  0.05546191    -0.15690
F2342       F  0.72444466  0.31772183  0.98629890    -0.13320
C2343       C  0.76793799  0.04314710  0.67049500     0.24690
C2344       C  0.78354016  0.02615052  0.63618427    -0.23420
C2345       C  0.78457668  0.49109522  0.64069928     0.19600
C2346       C  0.77452932  0.47508925  0.68127525     0.24630
C2347       C  0.76190794  0.49316762  0.71737424    -0.23360
C2348       C  0.75789954  0.02716687  0.71007842     0.19530
F2349       F  0.74366878  0.04524322  0.74165468    -0.13320
F2350       F  0.76446950  0.07640574  0.66815715    -0.15680
F2351       F  0.77671495  0.44175906  0.68511841    -0.15690
F2352       F  0.79516955  0.47219429  0.60634937    -0.13320
C2353       C  0.84528144  0.07297629  0.71228540     0.24690
C2354       C  0.85807612  0.10250555  0.69967882    -0.23420
C2355       C  0.85457630  0.11357066  0.65379604     0.19600
C2356       C  0.83695259  0.09655109  0.62272372     0.24630
C2357       C  0.82157910  0.06843865  0.63695332    -0.23360
C2358       C  0.82850977  0.05590066  0.68182477     0.19530
F2359       F  0.82082641  0.02560786  0.69714304    -0.13320
F2360       F  0.85010274  0.05895442  0.75410976    -0.15680
F2361       F  0.83537086  0.10749488  0.57856525    -0.15690
F2362       F  0.86828805  0.14073182  0.63880086    -0.13320
C2363       C  0.00517932  0.11969635  0.04856237     0.24690
C2364       C  0.99218971  0.10360681  0.01172758    -0.23420
C2365       C  0.99414518  0.06936587  0.00767025     0.19600
C2366       C  0.51063411  0.05181187  0.03735016     0.24630
C2367       C  0.52852037  0.06797202  0.06920292    -0.23360
C2368       C  0.52226685  0.10196364  0.07823433     0.19530
F2369       F  0.52898302  0.11698626  0.11886848    -0.13320
F2370       F  0.00114493  0.15249127  0.05591711    -0.15680
F2371       F  0.50710211  0.01869513  0.03658866    -0.15690
F2372       F  0.97904471  0.05246169  0.97586163    -0.13320
C2373       C  0.84390099  0.26555666  0.09029007     0.24690
C2374       C  0.81875037  0.27749088  0.07181703    -0.23420
C2375       C  0.81069262  0.26232561  0.02942744     0.19600
C2376       C  0.82874261  0.24403662  0.00270866     0.24630
C2377       C  0.85554054  0.23887240  0.01711593    -0.23360
C2378       C  0.86244888  0.24772837  0.06256411     0.19530
F2379       F  0.88722464  0.24001019  0.07983332    -0.13320
F2380       F  0.85057606  0.27082937  0.13536535    -0.15680
F2381       F  0.81962566  0.23111443  0.96196992    -0.15690
F2382       F  0.78515600  0.26332441  0.01302739    -0.13320
C2383       C  0.99201409  0.27790230  0.69480076     0.24690
C2384       C  0.99240027  0.24345677  0.69788075    -0.23420
C2385       C  0.51264325  0.22585035  0.67395280     0.19600
C2386       C  0.53150542  0.24245368  0.64519634     0.24630
C2387       C  0.53018708  0.27726711  0.63932567    -0.23360
C2388       C  0.01055730  0.29454844  0.66678003     0.19530
F2389       F  0.00835354  0.32801281  0.66493572    -0.13320
F2390       F  0.97373082  0.29573676  0.71986295    -0.15680
F2391       F  0.55210361  0.22470888  0.62655064    -0.15690
F2392       F  0.51527747  0.19287225  0.68129313    -0.13320
C2393       C  0.82913902  0.35684796  0.20273563     0.24690
C2394       C  0.85667388  0.36086430  0.19144277    -0.23420
C2395       C  0.86504540  0.35152283  0.14688072     0.19600
C2396       C  0.84677286  0.33607334  0.11593850     0.24630
C2397       C  0.81932603  0.32768630  0.12902821    -0.23360
C2398       C  0.81099459  0.34083863  0.17277514     0.19530
F2399       F  0.78521902  0.33961459  0.18826170    -0.13320
F2400       F  0.81927952  0.36885137  0.24348566    -0.15680
F2401       F  0.85671119  0.32850072  0.07321315    -0.15690
F2402       F  0.89127753  0.35611283  0.13352737    -0.13320
C2403       C  0.99277391  0.01729779  0.18005856     0.24690
C2404       C  0.00067244  0.48566721  0.19238616    -0.23420
C2405       C  0.52535412  0.47331945  0.17626373     0.19600
C2406       C  0.54128178  0.49169630  0.14518396     0.24630
C2407       C  0.53343302  0.02417813  0.13057236    -0.23360
C2408       C  0.00917604  0.03672276  0.15181228     0.19530
F2409       F  0.00079004  0.06828846  0.14732748    -0.13320
F2410       F  0.96945771  0.03031602  0.19764059    -0.15680
F2411       F  0.56372338  0.47618398  0.12864628    -0.15690
F2412       F  0.53421695  0.44337917  0.19094842    -0.13320
C2413       C  0.98512723  0.32983316  0.53837951     0.24690
C2414       C  0.99580326  0.35556138  0.51202772    -0.23420
C2415       C  0.52411902  0.36125495  0.51333139     0.19600
C2416       C  0.54107186  0.34290442  0.54304080     0.24630
C2417       C  0.53028733  0.31800286  0.57232383    -0.23360
C2418       C  0.00200194  0.31020405  0.56558872     0.19530
F2419       F  0.99034214  0.28198942  0.58172724    -0.13320
F2420       F  0.95838671  0.32163573  0.53457515    -0.15680
F2421       F  0.56814553  0.34958944  0.54322362    -0.15690
F2422       F  0.53545988  0.38437459  0.48523457    -0.13320
C2423       C  0.84564100  0.02743875  0.49170875     0.24690
C2424       C  0.86206615  0.50078330  0.50502348    -0.23420
C2425       C  0.86016223  0.49067590  0.55162008     0.19600
C2426       C  0.84154434  0.50562071  0.58284356     0.24630
C2427       C  0.82274078  0.03024494  0.56844894    -0.23360
C2428       C  0.82722557  0.04230105  0.52249190     0.19530
F2429       F  0.81546740  0.07037287  0.50684130    -0.13320
F2430       F  0.84794726  0.04054606  0.44868198    -0.15680
F2431       F  0.84256737  0.49592804  0.62755880    -0.15690
F2432       F  0.87648920  0.46631237  0.56754415    -0.13320
C2433       C  0.89879163  0.43376726  0.93326448     0.24690
C2434       C  0.91113620  0.45118437  0.89622017    -0.23420
C2435       C  0.91156802  0.48636529  0.89949838     0.19600
C2436       C  0.90437794  0.00256171  0.94119885     0.24630
C2437       C  0.89565418  0.48435094  0.97985354    -0.23360
C2438       C  0.89246270  0.44983173  0.97476793     0.19530
F2439       F  0.88190504  0.43163156  0.00998375    -0.13320
F2440       F  0.89592333  0.40028302  0.93143904    -0.15680
F2441       F  0.90446073  0.03617775  0.94299197    -0.15690
F2442       F  0.91828304  0.00533805  0.86266772    -0.13320
C2443       C  0.94204271  0.44603365  0.77528454     0.24690
C2444       C  0.94422688  0.45112413  0.82398216    -0.23420
C2445       C  0.96495413  0.47378203  0.83866583     0.19600
C2446       C  0.48141920  0.49078590  0.80708956     0.24630
C2447       C  0.97753606  0.98685398  0.75936424    -0.23360
C2448       C  0.95709265  0.96479197  0.74415349     0.19530
F2449       F  0.95209574  0.95972319  0.69837649    -0.13320
F2450       F  0.92720330  0.42121951  0.75590020    -0.15680
F2451       F  0.50147827  0.51080465  0.82373816    -0.15690
F2452       F  0.46981129  0.47992527  0.88393583    -0.13320
C2453       C  0.88376138  0.42455261  0.81057888     0.24690
C2454       C  0.90506364  0.40823246  0.83480075    -0.23420
C2455       C  0.90496529  0.37297246  0.83132170     0.19600
C2456       C  0.88871069  0.35628296  0.79808999     0.24630
C2457       C  0.86981139  0.37333827  0.77107817    -0.23360
C2458       C  0.86673689  0.40743502  0.77916685     0.19530
F2459       F  0.84778636  0.42457162  0.75525308    -0.13320
F2460       F  0.88092902  0.45791605  0.81406685    -0.15680
F2461       F  0.89244396  0.32345931  0.79033834    -0.15690
F2462       F  0.91978925  0.35402026  0.86014080    -0.13320
C2463       C  0.95858360  0.42254317  0.93312501     0.24690
C2464       C  0.95012479  0.41132478  0.88819794    -0.23420
C2465       C  0.96638669  0.38595441  0.86821948     0.19600
C2466       C  0.98450222  0.36747113  0.89573484     0.24630
C2467       C  0.98870392  0.37617565  0.94257570    -0.23360
C2468       C  0.97710798  0.40549423  0.95904098     0.19530
F2469       F  0.98412024  0.41891284  0.00072650    -0.13320
F2470       F  0.95086303  0.45166139  0.95269305    -0.15680
F2471       F  0.49780345  0.34139568  0.87656609    -0.15690
F2472       F  0.96426579  0.37843842  0.82247213    -0.13320
C2473       C  0.92756117  0.93023475  0.86014762    -0.01390
O2474       O  0.98960250  0.98552646  0.41796027    -0.74200
O2475       O  0.96246467  0.96256633  0.47389887    -0.53110
C2476       C  0.98257516  0.98059469  0.45955081     0.79530
O2477       O  0.88544305  0.99035388  0.26908035    -0.58800
O2478       O  0.90949244  0.96133602  0.21444488    -0.51830
C2479       C  0.89238617  0.98336520  0.22720440     0.71540
O2480       O  0.87706990  0.99137999  0.42681322    -0.73360
O2481       O  0.89820902  0.96274669  0.48380486    -0.53920
C2482       C  0.88050998  0.98401951  0.46993428     0.77550
O2483       O  0.99113431  0.97663741  0.27003459    -0.58500
O2484       O  0.96523463  0.94973716  0.21606561    -0.51620
C2485       C  0.98500655  0.96881425  0.22826765     0.74140
Zr2486     Zr  0.97359765  0.96637322  0.34681332     2.54710
O2487       O  0.97756837  0.52626682  0.33959421    -0.79070
O2488       O  0.52252178  0.95715518  0.34716972    -0.92490
Zr2489     Zr  0.89456889  0.97704256  0.34897784     2.64680
O2490       O  0.90282188  0.53660141  0.35190782    -0.97440
O2491       O  0.84587586  0.98635695  0.34305372    -0.79500
O2492       O  0.93417082  0.97381208  0.39415103    -0.82860
O2493       O  0.93428954  0.97151649  0.30270771    -2.17570
O2494       O  0.99053387  0.86590925  0.28795841    -0.66250
O2495       O  0.96192123  0.88034074  0.22968882    -0.50810
C2496       C  0.98384841  0.86767095  0.24558948     0.72520
O2497       O  0.86771468  0.86595126  0.42097901    -0.59160
O2498       O  0.89339939  0.89132284  0.47714993    -0.51130
C2499       C  0.87342358  0.87287208  0.46298393     0.74320
O2500       O  0.86936187  0.86843467  0.26963393    -0.70550
O2501       O  0.89746115  0.88999378  0.21490099    -0.49230
C2502       C  0.87591555  0.87395529  0.22724745     0.75710
O2503       O  0.98369238  0.86179950  0.43416044    -0.65880
O2504       O  0.95891823  0.89057601  0.48761459    -0.53080
C2505       C  0.97840596  0.87070964  0.47594681     0.74090
Zr2506     Zr  0.96485937  0.86959093  0.35714831     2.77540
O2507       O  0.95002668  0.81237025  0.35167951    -0.96630
O2508       O  0.50852370  0.84178327  0.36307469    -0.77450
Zr2509     Zr  0.88614468  0.87929086  0.34747189     2.70070
O2510       O  0.88286256  0.81903644  0.34470343    -0.78700
O2511       O  0.83699097  0.88607740  0.34985180    -0.97780
Zr2512     Zr  0.92853967  0.92539791  0.44060382     2.21500
Zr2513     Zr  0.93116053  0.92041822  0.26105232     2.11130
O2514       O  0.92684775  0.87131000  0.30603721    -2.46470
O2515       O  0.92397847  0.87436031  0.39887907    -0.78490
O2516       O  0.97044293  0.91593305  0.30771930    -0.70690
O2517       O  0.88932548  0.92853770  0.39259278    -2.31640
O2518       O  0.96941534  0.92022391  0.39685248    -2.27850
O2519       O  0.89007600  0.92783335  0.30341144    -0.72450
H2520       H  0.93661272  0.99022396  0.28239102     0.79550
H2521       H  0.87295553  0.93030040  0.41092359     0.80640
H2522       H  0.92584353  0.85183867  0.28644302     0.82860
H2523       H  0.98534865  0.92010559  0.41622382     0.80470
H2524       H  0.83745947  0.96565542  0.35463075     0.43510
H2525       H  0.83301275  0.90240118  0.32540257     0.42480
H2526       H  0.89183245  0.81236625  0.31539100     0.42150
H2527       H  0.95371736  0.80611737  0.31908555     0.40090
H2528       H  0.52210124  0.85994363  0.36557827     0.43220
H2529       H  0.52605110  0.94403399  0.37531984     0.38000
H2530       H  0.95872183  0.53402673  0.33513718     0.44120
H2531       H  0.90684282  0.54286606  0.31951421     0.40540
H2532       H  0.96390320  0.80027311  0.36953826     0.45460
H2533       H  0.53063662  0.97919655  0.35381817     0.44180
H2534       H  0.88475962  0.54632919  0.35835160     0.44310
H2535       H  0.82952675  0.86483659  0.33793168     0.44670
O2536       O  0.98246978  0.73857774  0.92445866    -0.74200
O2537       O  0.95949064  0.71194125  0.98222604    -0.53110
C2538       C  0.97816424  0.73112261  0.96640108     0.79530
O2539       O  0.86755422  0.73565409  0.79018617    -0.58800
O2540       O  0.89109359  0.70912507  0.73255833    -0.51830
C2541       C  0.87229322  0.72828819  0.74802567     0.71540
O2542       O  0.86991686  0.73286651  0.94061109    -0.73360
O2543       O  0.89517730  0.70717293  0.99511640    -0.53920
C2544       C  0.87516342  0.72550194  0.98272259     0.77550
O2545       O  0.98102081  0.73574589  0.77534005    -0.58500
O2546       O  0.95592081  0.70765391  0.72158008    -0.51620
C2547       C  0.97532774  0.72755382  0.73352918     0.74140
Zr2548     Zr  0.96440819  0.72430600  0.85232598     2.54710
O2549       O  0.95864330  0.78417106  0.85010642    -0.79070
O2550       O  0.51371705  0.72960422  0.84662041    -0.92490
Zr2551     Zr  0.88560371  0.72202342  0.86296387     2.64680
O2552       O  0.88800059  0.78170802  0.87311306    -0.97440
O2553       O  0.83617610  0.72416902  0.86257986    -0.79500
O2554       O  0.92658965  0.72548045  0.90393725    -0.82860
O2555       O  0.92348302  0.72473355  0.81133909    -2.17570
O2556       O  0.98632286  0.62214706  0.78565571    -0.66250
O2557       O  0.95805633  0.64093686  0.72919095    -0.50810
C2558       C  0.97963822  0.62658313  0.74371041     0.72520
O2559       O  0.87808361  0.60653019  0.93649848    -0.59160
O2560       O  0.90331134  0.63443118  0.99084738    -0.51130
C2561       C  0.88602000  0.61236791  0.97823116     0.74320
O2562       O  0.86998142  0.61380113  0.77802927    -0.70550
O2563       O  0.89427529  0.63974554  0.72171063    -0.49230
C2564       C  0.87520995  0.62008451  0.73506519     0.75710
O2565       O  0.98026821  0.61266282  0.93498219    -0.65880
O2566       O  0.95925063  0.64346797  0.99073215    -0.53080
C2567       C  0.97626546  0.62141055  0.97723179     0.74090
Zr2568     Zr  0.96471373  0.62598452  0.85807285     2.77540
O2569       O  0.95608388  0.56679498  0.84967204    -0.96630
O2570       O  0.51300500  0.61375357  0.86320808    -0.77450
Zr2571     Zr  0.88584952  0.62438453  0.85751675     2.70070
O2572       O  0.88617173  0.56421632  0.85142263    -0.78700
O2573       O  0.83652239  0.62346194  0.86324641    -0.97780
Zr2574     Zr  0.92698958  0.67545745  0.94699881     2.21500
Zr2575     Zr  0.92442670  0.67422771  0.76802600     2.11130
O2576       O  0.92532195  0.62377856  0.81101175    -2.46470
O2577       O  0.92561534  0.62492933  0.90380338    -0.78490
O2578       O  0.96491590  0.67420035  0.81162563    -0.70690
O2579       O  0.88538056  0.67259067  0.90512825    -2.31640
O2580       O  0.96649884  0.67608088  0.89923978    -2.27850
O2581       O  0.88485040  0.67384535  0.81556130    -0.72450
H2582       H  0.92271670  0.74393279  0.79160871     0.79550
H2583       H  0.86982233  0.67139307  0.92552682     0.80640
H2584       H  0.92559613  0.60468678  0.79063117     0.82860
H2585       H  0.98308633  0.67610128  0.91701531     0.80470
H2586       H  0.83031667  0.70126906  0.86984277     0.43510
H2587       H  0.83034210  0.63909125  0.83926879     0.42480
H2588       H  0.89458826  0.55942299  0.82094513     0.42150
H2589       H  0.96298009  0.56117835  0.81836786     0.40090
H2590       H  0.52187231  0.63573073  0.86671050     0.43220
H2591       H  0.52102853  0.71416804  0.86991658     0.38000
H2592       H  0.95514486  0.79078319  0.88265743     0.44120
H2593       H  0.90439328  0.78829449  0.85553169     0.40540
H2594       H  0.96908361  0.55632274  0.87109868     0.45460
H2595       H  0.51805732  0.75202298  0.85880629     0.44180
H2596       H  0.87245093  0.79017589  0.85514799     0.44310
H2597       H  0.83116100  0.60131360  0.85127741     0.44670
O2598       O  0.70614031  0.97752835  0.96880493    -0.74200
O2599       O  0.74373336  0.96514796  0.92561369    -0.53110
C2600       C  0.73157234  0.97621017  0.96312439     0.79530
O2601       O  0.63111094  0.86992063  0.94382156    -0.58800
O2602       O  0.59611252  0.89078748  0.90161243    -0.51990
C2603       C  0.60609368  0.87458169  0.93575419     0.71540
O2604       O  0.71782900  0.87359005  0.95257492    -0.73360
O2605       O  0.75370369  0.89578705  0.91368479    -0.53920
C2606       C  0.74331569  0.87774715  0.94661325     0.77550
O2607       O  0.62672186  0.99311841  0.93572387    -0.58500
O2608       O  0.59404671  0.95992651  0.90440149    -0.51620
C2609       C  0.60221755  0.98305969  0.93249051     0.74140
Zr2610     Zr  0.67178923  0.97967668  0.91309965     2.54710
O2611       O  0.66280455  0.99977248  0.99144147    -0.79070
O2612       O  0.68259491  0.53777754  0.90108081    -0.92490
Zr2613     Zr  0.67500120  0.88202340  0.91655274     2.64680
O2614       O  0.67589155  0.87419617  0.99994091    -0.97440
O2615       O  0.67737459  0.82240875  0.90394826    -0.79500
O2616       O  0.69902937  0.93195687  0.91759244    -0.82860
O2617       O  0.64712353  0.92969622  0.91580985    -2.17570
O2618       O  0.63167414  0.98743696  0.75702977    -0.66250
O2619       O  0.59642016  0.96306830  0.79597300    -0.50810
C2620       C  0.60652643  0.98148401  0.76420086     0.72520
O2621       O  0.72093537  0.87394387  0.75622105    -0.59160
O2622       O  0.75503524  0.89473735  0.80201786    -0.51130
C2623       C  0.74585600  0.87881995  0.76625640     0.74320
O2624       O  0.63296240  0.86346814  0.75222323    -0.70550
O2625       O  0.59802110  0.89118908  0.78705646    -0.49230
C2626       C  0.60769756  0.87065506  0.75641912     0.75710
O2627       O  0.71913799  0.97794537  0.74252893    -0.65880
O2628       O  0.75338467  0.96521747  0.79256685    -0.53080
C2629       C  0.74427465  0.97685263  0.75334672     0.74090
Zr2630     Zr  0.67652861  0.97566551  0.78272138     2.77540
O2631       O  0.67591739  0.98217598  0.69894418    -0.96630
O2632       O  0.68284098  0.53537099  0.78847731    -0.77450
Zr2633     Zr  0.67622400  0.87855062  0.78613943     2.70070
O2634       O  0.67762397  0.86766709  0.70320492    -0.78700
O2635       O  0.67976398  0.81950101  0.80165875    -0.97780
Zr2636     Zr  0.73025610  0.93143307  0.85532866     2.21500
Zr2637     Zr  0.62012935  0.92658542  0.84735426     2.11130
O2638       O  0.64976249  0.92668584  0.78133471    -2.46470
O2639       O  0.70257101  0.92759005  0.78769967    -0.78490
O2640       O  0.64552146  0.97778187  0.84556895    -0.70690
O2641       O  0.70425891  0.88057546  0.85267213    -2.31640
O2642       O  0.70320629  0.98091939  0.85054009    -2.27850
O2643       O  0.64703537  0.87729985  0.85057935    -0.72450
H2644       H  0.63614176  0.93029830  0.94354162     0.79550
H2645       H  0.71599501  0.86149291  0.85382690     0.80640
H2646       H  0.63966406  0.92603560  0.75273445     0.82860
H2647       H  0.71444508  0.00063338  0.85042071     0.80470
H2648       H  0.69698253  0.81709268  0.90469273     0.43510
H2649       H  0.66070922  0.81151733  0.80311151     0.42480
H2650       H  0.67692864  0.88990866  0.68901153     0.42150
H2651       H  0.66264475  0.96545430  0.68765273     0.40090
H2652       H  0.67179965  0.54188137  0.81561067     0.43220
H2653       H  0.70049002  0.54072423  0.91616134     0.38000
H2654       H  0.65710278  0.97990555  0.00904872     0.44120
H2655       H  0.66162898  0.88899186  0.01249574     0.40540
H2656       H  0.66721083  0.00386129  0.69354805     0.45460
H2657       H  0.66979747  0.54966585  0.92175927     0.44180
H2658       H  0.66881352  0.85142067  0.00438730     0.44310
H2659       H  0.68703922  0.80982454  0.77258869     0.44670
C2660       C  0.67613056  0.67188788  0.86074396    -0.01390
C2661       C  0.67740332  0.92809760  0.35371319    -0.01390
C2662       C  0.93167639  0.68045261  0.35244325    -0.01390
O2663       O  0.99420992  0.62046425  0.66869011    -0.74200
O2664       O  0.51632675  0.59345956  0.72663712    -0.53110
C2665       C  0.49806203  0.61294544  0.71081784     0.79530
O2666       O  0.99174277  0.49206842  0.53455718    -0.58800
O2667       O  0.51980837  0.51410040  0.47928236    -0.51830
C2668       C  0.99922751  0.49668878  0.49313969     0.71540
O2669       O  0.99098367  0.49625776  0.68251401    -0.73360
O2670       O  0.51426399  0.52364010  0.73857499    -0.53920
C2671       C  0.49539846  0.50360871  0.72498473     0.77550
O2672       O  0.99927883  0.61673553  0.52121341    -0.58500
O2673       O  0.52226245  0.58594580  0.46767941    -0.51620
C2674       C  0.50412723  0.60771587  0.47939848     0.74140
Zr2675     Zr  0.51545182  0.60563063  0.59826584     2.54710
O2676       O  0.96780811  0.62129566  0.59440254    -0.79070
O2677       O  0.52963362  0.66275123  0.58868907    -0.92490
Zr2678     Zr  0.50821058  0.50831782  0.60667957     2.64680
O2679       O  0.95883252  0.51294134  0.60852651    -0.97440
O2680       O  0.50769714  0.94792178  0.60690875    -0.79500
O2681       O  0.50954687  0.55878284  0.64675408    -0.82860
O2682       O  0.51177989  0.55526638  0.55810150    -2.17570
O2683       O  0.61291138  0.61083104  0.53735555    -0.66250
O2684       O  0.58739880  0.58621889  0.48027777    -0.50810
C2685       C  0.60728239  0.60439540  0.49515987     0.72520
O2686       O  0.59707708  0.48906811  0.68800731    -0.59160
O2687       O  0.57090148  0.51557549  0.74225840    -0.51130
C2688       C  0.58958303  0.49556233  0.72976202     0.74320
O2689       O  0.60572129  0.48509405  0.53127549    -0.70550
O2690       O  0.58550617  0.51519941  0.47433755    -0.49230
C2691       C  0.60294899  0.49368972  0.48856451     0.75710
O2692       O  0.60795521  0.61127936  0.68914385    -0.65880
O2693       O  0.58096277  0.58551467  0.74224058    -0.53080
C2694       C  0.60108538  0.60440059  0.73097831     0.74090
Zr2695     Zr  0.59389120  0.59755242  0.61063207     2.77540
O2696       O  0.64305416  0.59196707  0.61653510    -0.96630
O2697       O  0.59590232  0.65790577  0.61129476    -0.77450
Zr2698     Zr  0.58686852  0.49968964  0.60773178     2.70070
O2699       O  0.63543820  0.48942019  0.61233417    -0.78700
O2700       O  0.57739558  0.94039493  0.60697610    -0.97780
Zr2701     Zr  0.54817737  0.55473083  0.69497006     2.21500
Zr2702     Zr  0.55291680  0.55112592  0.51520594     2.11130
O2703       O  0.59169238  0.54854765  0.56469454    -2.46470
O2704       O  0.58988384  0.54869887  0.65388410    -0.78490
O2705       O  0.55670659  0.60166935  0.55804485    -0.70690
O2706       O  0.54672107  0.50372573  0.65288970    -2.31640
O2707       O  0.55262623  0.60419774  0.65090987    -2.27850
O2708       O  0.54802685  0.50216361  0.56049692    -0.72450
H2709       H  0.99601871  0.55589127  0.53831219     0.79550
H2710       H  0.54476931  0.98487686  0.67304980     0.80640
H2711       H  0.60828318  0.54714325  0.54690051     0.82860
H2712       H  0.55315142  0.62366187  0.67058703     0.80470
H2713       H  0.51481095  0.94165325  0.63762748     0.43510
H2714       H  0.56934925  0.93589926  0.57616020     0.42480
H2715       H  0.64391435  0.51159890  0.60904023     0.42150
H2716       H  0.64825520  0.57692702  0.59079614     0.40090
H2717       H  0.58988046  0.66454677  0.58004196     0.43220
H2718       H  0.54126028  0.66685056  0.61594975     0.38000
H2719       H  0.95783411  0.59994219  0.59230204     0.44120
H2720       H  0.95425324  0.52758952  0.58236892     0.40540
H2721       H  0.65044826  0.61389415  0.60760822     0.45460
H2722       H  0.01295733  0.67579320  0.59440715     0.44180
H2723       H  0.95195867  0.49077786  0.59913347     0.44310
H2724       H  0.59553111  0.92991779  0.60558675     0.44670
O2725       O  0.00176192  0.86428177  0.01872259    -0.74200
O2726       O  0.52045975  0.83331191  0.96176965    -0.53110
C2727       C  0.50474033  0.85644159  0.97586517     0.79530
O2728       O  0.61577404  0.86301066  0.17098848    -0.58800
O2729       O  0.58903502  0.84100956  0.22788100    -0.51830
C2730       C  0.60971508  0.85790530  0.21397708     0.71540
O2731       O  0.59856852  0.86621897  0.01281380    -0.73360
O2732       O  0.57125167  0.83967604  0.96023203    -0.53920
C2733       C  0.58970690  0.86045219  0.97147994     0.77550
O2734       O  0.99554667  0.85877779  0.17089823    -0.58500
O2735       O  0.52469578  0.84163928  0.22711314    -0.51620
C2736       C  0.50274815  0.85523246  0.21277319     0.74140
Zr2737     Zr  0.51597384  0.85420910  0.09772379     2.54710
O2738       O  0.52491782  0.91331825  0.10249129    -0.79070
O2739       O  0.96824144  0.87015467  0.09681610    -0.92490
Zr2740     Zr  0.59497190  0.85187798  0.09436624     2.64680
O2741       O  0.59721108  0.91217920  0.09723726    -0.97440
O2742       O  0.64393262  0.84958639  0.08369920    -0.79500
O2743       O  0.55427987  0.85214500  0.05070801    -0.82860
O2744       O  0.55636460  0.85565121  0.14272643    -2.17570
O2745       O  0.99477589  0.75203328  0.18671067    -0.66250
O2746       O  0.52567327  0.77332673  0.23747148    -0.50810
C2747       C  0.50334225  0.75764444  0.22788101     0.72520
O2748       O  0.60529858  0.73936355  0.01549535    -0.59160
O2749       O  0.58028661  0.76726391  0.96245988    -0.51130
C2750       C  0.59903966  0.74685260  0.97380441     0.74320
O2751       O  0.61175709  0.74311444  0.16629653    -0.70550
O2752       O  0.58948089  0.77107238  0.22403143    -0.49230
C2753       C  0.60774960  0.75117110  0.20852174     0.75710
O2754       O  0.99280666  0.73841852  0.04018193    -0.65880
O2755       O  0.51516634  0.76451094  0.98123544    -0.53080
C2756       C  0.49661562  0.74553421  0.99800032     0.74090
Zr2757     Zr  0.51275842  0.75651512  0.10907806     2.77540
O2758       O  0.51607156  0.69716221  0.12235745    -0.96630
O2759       O  0.96334317  0.75375200  0.11093489    -0.77450
Zr2760     Zr  0.59150948  0.75376641  0.09347126     2.70070
O2761       O  0.58035500  0.69506836  0.09341135    -0.78700
O2762       O  0.64002285  0.74314267  0.08472745    -0.97780
Zr2763     Zr  0.54991594  0.80084435  0.00996341     2.21500
Zr2764     Zr  0.55649756  0.80611885  0.18785344     2.11130
O2765       O  0.55472540  0.75481261  0.14722994    -2.46470
O2766       O  0.54945140  0.75185934  0.05507795    -0.78490
O2767       O  0.51519841  0.80747865  0.14679529    -0.70690
O2768       O  0.59256686  0.80240953  0.04914602    -2.31640
O2769       O  0.51114457  0.80337452  0.05925556    -2.27850
O2770       O  0.59501528  0.80313354  0.13819748    -0.72450
H2771       H  0.55712763  0.87524881  0.16212912     0.79550
H2772       H  0.60766077  0.80218750  0.02769177     0.80640
H2773       H  0.55555550  0.73643041  0.16835845     0.82860
H2774       H  0.99425404  0.80357617  0.04232094     0.80470
H2775       H  0.64864059  0.82622409  0.08993232     0.43510
H2776       H  0.64919279  0.75939477  0.10537333     0.42480
H2777       H  0.57414282  0.69010627  0.06151454     0.42150
H2778       H  0.52466466  0.69477521  0.15306661     0.40090
H2779       H  0.95755244  0.77721520  0.11107355     0.43220
H2780       H  0.95945844  0.85507370  0.07407415     0.38000
H2781       H  0.54276815  0.91596367  0.08706769     0.44120
H2782       H  0.59392996  0.91802510  0.13012628     0.40540
H2783       H  0.99703857  0.69010584  0.12762368     0.45460
H2784       H  0.96792818  0.89225345  0.08219190     0.44180
H2785       H  0.61663845  0.91754336  0.09200118     0.44310
H2786       H  0.64308977  0.72133407  0.09923886     0.44670
O2787       O  0.85378868  0.99170015  0.01011473    -0.74200
O2788       O  0.88744034  0.52000722  0.04766988    -0.53110
C2789       C  0.87846357  0.50015790  0.01545809     0.79530
O2790       O  0.76381268  0.60244256  0.99531338    -0.58800
O2791       O  0.72888036  0.58035597  0.03790776    -0.51830
C2792       C  0.73844880  0.59681527  0.00261904     0.71540
O2793       O  0.85068539  0.57868689  0.00314459    -0.73360
O2794       O  0.88373015  0.58971900  0.05375701    -0.53920
C2795       C  0.87306081  0.59297186  0.01371792     0.77550
O2796       O  0.77233663  0.98219046  0.99929953    -0.58500
O2797       O  0.73600996  0.50722972  0.03461766    -0.51620
C2798       C  0.74737650  0.48901983  0.00213441     0.74140
Zr2799     Zr  0.81016014  0.49936716  0.04138223     2.54710
O2800       O  0.81378612  0.49168315  0.95789800    -0.79070
O2801       O  0.81242680  0.94017441  0.05619836    -0.92490
Zr2802     Zr  0.80735593  0.59629500  0.03406579     2.64680
O2803       O  0.81295852  0.61895781  0.95664517    -0.97440
O2804       O  0.81430331  0.65557267  0.04628968    -0.79500
O2805       O  0.83487167  0.54884111  0.03998444    -0.82860
O2806       O  0.78200124  0.54641095  0.03469511    -2.17570
O2807       O  0.76216533  0.99097183  0.20113689    -0.66250
O2808       O  0.72673884  0.51215659  0.16143476    -0.50810
C2809       C  0.73670153  0.49533589  0.19611096     0.72520
O2810       O  0.84692997  0.61100218  0.20424858    -0.59160
O2811       O  0.88380076  0.58925911  0.16810141    -0.51130
C2812       C  0.87268722  0.60725270  0.20050887     0.74320
O2813       O  0.75968462  0.61023690  0.19350111    -0.70550
O2814       O  0.72612214  0.58271693  0.15362226    -0.49230
C2815       C  0.73489538  0.60222570  0.18640232     0.75710
O2816       O  0.85054493  0.99303910  0.20040672    -0.65880
O2817       O  0.88594432  0.51639887  0.16060660    -0.53080
C2818       C  0.87572040  0.49852168  0.19303117     0.74090
Zr2819     Zr  0.80638376  0.50368890  0.17170802     2.77540
O2820       O  0.80814623  0.50905235  0.25578385    -0.96630
O2821       O  0.80655072  0.94335547  0.17410621    -0.77450
Zr2822     Zr  0.80449843  0.60046337  0.16518393     2.70070
O2823       O  0.79976304  0.61682599  0.24606739    -0.78700
O2824       O  0.80703173  0.65829859  0.14321799    -0.97780
Zr2825     Zr  0.86231285  0.55258721  0.10779527     2.21500
Zr2826     Zr  0.75115176  0.54591197  0.09896635     2.11130
O2827       O  0.77903057  0.55073389  0.16670888    -2.46470
O2828       O  0.83199888  0.55332721  0.17228963    -0.78490
O2829       O  0.77947281  0.49771251  0.10430789    -0.70690
O2830       O  0.83439809  0.60151197  0.10178291    -2.31640
O2831       O  0.83679995  0.50157932  0.10844784    -2.27850
O2832       O  0.77702936  0.59721069  0.09795721    -0.72450
H2833       H  0.77283840  0.54478885  0.00533526     0.79550
H2834       H  0.84540122  0.62142464  0.10185027     0.80640
H2835       H  0.76801642  0.55108630  0.19435853     0.82860
H2836       H  0.84863246  0.98259659  0.10976962     0.80470
H2837       H  0.83227292  0.66037119  0.03222680     0.43510
H2838       H  0.78815461  0.66393565  0.13473365     0.42480
H2839       H  0.80012928  0.59567847  0.26323272     0.42150
H2840       H  0.79075594  0.51933865  0.26524378     0.40090
H2841       H  0.78862634  0.93650827  0.16165404     0.43220
H2842       H  0.81962465  0.93803050  0.08791819     0.38000
H2843       H  0.81426717  0.51446966  0.94538561     0.44120
H2844       H  0.80415642  0.60255972  0.93577328     0.40540
H2845       H  0.80711860  0.98608292  0.26739559     0.45460
H2846       H  0.82748508  0.93251679  0.03608151     0.44180
H2847       H  0.80115887  0.63872959  0.95552007     0.44310
H2848       H  0.81056511  0.67022481  0.17267729     0.44670
C2849       C  0.80040603  0.80410844  0.09775001    -0.01390
C2850       C  0.54920434  0.79828898  0.60688011    -0.01390
O2851       O  0.61788923  0.73253522  0.43367187    -0.74200
O2852       O  0.64592961  0.70907418  0.48671734    -0.53110
C2853       C  0.62471869  0.72652545  0.47576017     0.79530
O2854       O  0.62168266  0.60954422  0.26770123    -0.58800
O2855       O  0.64208493  0.64213300  0.21363107    -0.51830
C2856       C  0.62548920  0.61876544  0.22556253     0.71540
O2857       O  0.61941322  0.61224134  0.41937393    -0.73360
O2858       O  0.64466350  0.63797371  0.47585913    -0.53920
C2859       C  0.62506786  0.61915649  0.46139584     0.77550
O2860       O  0.62039843  0.74208686  0.28380978    -0.58500
O2861       O  0.64264205  0.71470866  0.22541701    -0.51620
C2862       C  0.62496129  0.73524882  0.24133726     0.74140
Zr2863     Zr  0.63698497  0.72370782  0.35617125     2.54710
O2864       O  0.58762216  0.72752100  0.35558301    -0.79070
O2865       O  0.64392872  0.78334344  0.36414481    -0.92490
Zr2866     Zr  0.63682397  0.62586457  0.34543967     2.64680
O2867       O  0.58728990  0.62399082  0.34549626    -0.97440
O2868       O  0.64184137  0.56597894  0.34371605    -0.79500
O2869       O  0.63751343  0.67317410  0.39537763    -0.82860
O2870       O  0.63499407  0.67634985  0.30596210    -2.17570
O2871       O  0.72925538  0.74225293  0.26810545    -0.66250
O2872       O  0.70531061  0.71295306  0.21384579    -0.50810
C2873       C  0.72329993  0.73486338  0.22593132     0.72520
O2874       O  0.73258272  0.60911010  0.42516701    -0.59160
O2875       O  0.71019366  0.63819980  0.48170550    -0.51130
C2876       C  0.72817535  0.61674493  0.46843311     0.74320
O2877       O  0.72432042  0.61009511  0.26421333    -0.70550
O2878       O  0.69920941  0.63747185  0.21005002    -0.49230
C2879       C  0.71715708  0.61629438  0.22202026     0.75710
O2880       O  0.73627824  0.73722309  0.41868724    -0.65880
O2881       O  0.71244074  0.71033525  0.47547836    -0.53080
C2882       C  0.73149665  0.72999267  0.46095035     0.74090
Zr2883     Zr  0.71643666  0.72352083  0.34547303     2.77540
O2884       O  0.76590606  0.72337726  0.34069429    -0.96630
O2885       O  0.71235626  0.78353484  0.34751271    -0.77450
Zr2886     Zr  0.71627869  0.62508606  0.34607262     2.70070
O2887       O  0.76562923  0.62628767  0.34014001    -0.78700
O2888       O  0.71459980  0.56473737  0.34701844    -0.97780
Zr2889     Zr  0.67812938  0.67411486  0.43979322     2.21500
Zr2890     Zr  0.67449023  0.67631569  0.25794579     2.11130
O2891       O  0.71613224  0.67438355  0.30052865    -2.46470
O2892       O  0.71721397  0.67444276  0.39063953    -0.78490
O2893       O  0.67504306  0.72521003  0.30480298    -0.70690
O2894       O  0.67664285  0.62466738  0.39255195    -2.31640
O2895       O  0.67833687  0.72452797  0.39715141    -2.27850
O2896       O  0.67626958  0.62572498  0.30000863    -0.72450
H2897       H  0.61855364  0.67666074  0.28778591     0.79550
H2898       H  0.67644733  0.60509829  0.41162353     0.80640
H2899       H  0.73154681  0.67437898  0.27973250     0.82860
H2900       H  0.67915298  0.74357408  0.41758507     0.80470
H2901       H  0.65113249  0.56111869  0.31400117     0.43510
H2902       H  0.70398417  0.55841043  0.31921651     0.42480
H2903       H  0.77099740  0.64769263  0.35451250     0.42150
H2904       H  0.77022433  0.70991668  0.31285490     0.40090
H2905       H  0.69886654  0.78866801  0.32326578     0.43220
H2906       H  0.64412061  0.78766753  0.39793016     0.38000
H2907       H  0.58124849  0.70419574  0.35573847     0.44120
H2908       H  0.58171997  0.63847071  0.31972753     0.40540
H2909       H  0.77095570  0.74632967  0.33216127     0.45460
H2910       H  0.62669130  0.79318954  0.35342120     0.44180
H2911       H  0.58258305  0.60126950  0.33494536     0.44310
H2912       H  0.73341337  0.55782082  0.33968469     0.44670
O2913       O  0.85873354  0.73573900  0.67313054    -0.74200
O2914       O  0.83645488  0.76311741  0.73146565    -0.53110
C2915       C  0.85462786  0.74330629  0.71542193     0.79530
O2916       O  0.86209319  0.86354929  0.53920399    -0.58800
O2917       O  0.83567074  0.83967121  0.48262805    -0.51830
C2918       C  0.85573355  0.85789346  0.49709084     0.71540
O2919       O  0.85936730  0.86434300  0.69126202    -0.73360
O2920       O  0.83644768  0.83366578  0.74487044    -0.53920
C2921       C  0.85415279  0.85595582  0.73344851     0.77550
O2922       O  0.85555247  0.73563335  0.52400062    -0.58500
O2923       O  0.83408882  0.76775034  0.47094397    -0.51620
C2924       C  0.85180087  0.74538348  0.48217180     0.74140
Zr2925     Zr  0.83866297  0.74942731  0.60169180     2.54710
O2926       O  0.88688630  0.73657731  0.59720488    -0.79070
O2927       O  0.82500623  0.69134578  0.59960536    -0.92490
Zr2928     Zr  0.84518042  0.84717759  0.61268247     2.64680
O2929       O  0.89417624  0.83941784  0.61709127    -0.97440
O2930       O  0.84676659  0.90749418  0.61242131    -0.79500
O2931       O  0.84298841  0.79658907  0.65199038    -0.82860
O2932       O  0.84221394  0.79989267  0.56255776    -2.17570
O2933       O  0.74338278  0.73965977  0.53745960    -0.66250
O2934       O  0.76820341  0.76562775  0.48088745    -0.50810
C2935       C  0.74899359  0.74605212  0.49519093     0.72520
O2936       O  0.75696100  0.87015044  0.68979410    -0.59160
O2937       O  0.78007273  0.84148458  0.74528101    -0.51130
C2938       C  0.76335375  0.86371034  0.73209556     0.74320
O2939       O  0.74814236  0.86886509  0.53176384    -0.70550
O2940       O  0.76983863  0.83906517  0.47526805    -0.49230
C2941       C  0.75204423  0.86074566  0.48874782     0.75710
O2942       O  0.74563407  0.74137249  0.69019564    -0.65880
O2943       O  0.77160097  0.76547604  0.74599406    -0.53080
C2944       C  0.75196466  0.74591221  0.73306884     0.74090
Zr2945     Zr  0.75989956  0.75646896  0.61186939     2.77540
O2946       O  0.71077544  0.76367776  0.61457361    -0.96630
O2947       O  0.75693567  0.69630660  0.61432029    -0.77450
Zr2948     Zr  0.76550667  0.85370535  0.60963620     2.70070
O2949       O  0.71625846  0.85619346  0.61670319    -0.78700
O2950       O  0.76916514  0.91330752  0.60192688    -0.97780
Zr2951     Zr  0.80359572  0.80042025  0.69987456     2.21500
Zr2952     Zr  0.80182216  0.80270057  0.51723092     2.11130
O2953       O  0.76214493  0.80477817  0.56535235    -2.46470
O2954       O  0.76248884  0.80539260  0.65656752    -0.78490
O2955       O  0.79792257  0.75254106  0.56015475    -0.70690
O2956       O  0.80524594  0.85067872  0.65636668    -2.31640
O2957       O  0.80073803  0.75122712  0.65333775    -2.27850
O2958       O  0.80569392  0.85150736  0.56484372    -0.72450
H2959       H  0.85823938  0.79910883  0.54322856     0.79550
H2960       H  0.80684366  0.87000296  0.67611212     0.80640
H2961       H  0.74590502  0.80569348  0.54673528     0.82860
H2962       H  0.80027501  0.73172796  0.67251755     0.80470
H2963       H  0.82795849  0.91439717  0.61977557     0.43510
H2964       H  0.77786476  0.91658817  0.57133281     0.42480
H2965       H  0.71116469  0.83554043  0.63293986     0.42150
H2966       H  0.70629170  0.77641060  0.58647385     0.40090
H2967       H  0.76990910  0.68957124  0.63857304     0.43220
H2968       H  0.82709761  0.68365851  0.63185315     0.38000
H2969       H  0.89607908  0.75848035  0.59771326     0.44120
H2970       H  0.89882238  0.82577655  0.58958009     0.40540
H2971       H  0.70321046  0.74125368  0.60862393     0.45460
H2972       H  0.83970173  0.68013219  0.58214824     0.44180
H2973       H  0.90202461  0.86154016  0.61045922     0.44310
H2974       H  0.75022704  0.92088649  0.59777581     0.44670
C2975       C  0.80208308  0.54811845  0.60316198    -0.01390
C2976       C  0.55038488  0.54637414  0.09539171    -0.01390
C2977       C  0.58076417  0.60068898  0.11963914     0.24690
C2978       C  0.57332858  0.56629157  0.12483771    -0.23420
C2979       C  0.58943762  0.54969481  0.15856607     0.19600
C2980       C  0.60569179  0.56662423  0.19102620     0.24630
C2981       C  0.60936577  0.60090567  0.18901944    -0.23360
C2982       C  0.59779770  0.61741298  0.15165711     0.19530
F2983       F  0.60289025  0.65018465  0.14622774    -0.13320
F2984       F  0.57342985  0.61880262  0.08245144    -0.15680
F2985       F  0.61920040  0.54882944  0.22331539    -0.15690
F2986       F  0.59195103  0.51666057  0.15905399    -0.13320
C2987       C  0.75807026  0.61791234  0.54136167     0.24690
C2988       C  0.74514054  0.59977464  0.50550438    -0.23420
C2989       C  0.74852418  0.56516778  0.50571491     0.19600
C2990       C  0.76486727  0.54945139  0.53927986     0.24630
C2991       C  0.78023708  0.56766784  0.57290346    -0.23360
C2992       C  0.77512184  0.60239356  0.57449721     0.19530
F2993       F  0.78578947  0.62170834  0.60852110    -0.13320
F2994       F  0.75491723  0.65123918  0.54339953    -0.15680
F2995       F  0.76710554  0.51595966  0.53687966    -0.15690
F2996       F  0.73579576  0.54620873  0.47325182    -0.13320
C2997       C  0.56030046  0.75433987  0.54181643     0.24690
C2998       C  0.57002573  0.77778148  0.57501936    -0.23420
C2999       C  0.59887286  0.78343002  0.57400710     0.19600
C3000       C  0.61651993  0.76492041  0.54489721     0.24630
C3001       C  0.60649104  0.74158813  0.51283507    -0.23360
C3002       C  0.57801761  0.73697526  0.51145252     0.19530
F3003       F  0.56709907  0.71564631  0.47992523    -0.13320
F3004       F  0.53323839  0.74831253  0.53808365    -0.15680
F3005       F  0.64356227  0.77183191  0.54568047    -0.15690
F3006       F  0.61057650  0.80855296  0.59831148    -0.13320
C3007       C  0.73534685  0.78343931  0.17447712     0.24690
C3008       C  0.74023438  0.75114852  0.18960974    -0.23420
C3009       C  0.76391682  0.73557084  0.17473079     0.19600
C3010       C  0.78269394  0.75146415  0.14544739     0.24630
C3011       C  0.77881829  0.78474147  0.12974594    -0.23360
C3012       C  0.75387478  0.79974962  0.14478576     0.19530
F3013       F  0.74748495  0.83104687  0.13179548    -0.13320
F3014       F  0.71282008  0.79966514  0.18932896    -0.15680
F3015       F  0.80472173  0.73331832  0.13410915    -0.15690
F3016       F  0.76950383  0.70485175  0.19070653    -0.13320
C3017       C  0.88871713  0.66628845  0.30153151     0.24690
C3018       C  0.91628672  0.66008993  0.31305152    -0.23420
C3019       C  0.93039185  0.63838647  0.28194893     0.19600
C3020       C  0.91687322  0.62096944  0.24565234     0.24630
C3021       C  0.88901438  0.62588868  0.23709291    -0.23360
C3022       C  0.87567659  0.64975842  0.26512231     0.19530
F3023       F  0.84960086  0.65873958  0.25658919    -0.13320
F3024       F  0.87404572  0.69054178  0.32237901    -0.15680
F3025       F  0.93120483  0.59944665  0.21892273    -0.15690
F3026       F  0.95751479  0.63368883  0.28675096    -0.13320
C3027       C  0.95789183  0.74691913  0.26471821     0.24690
C3028       C  0.98629453  0.74320882  0.26534111    -0.23420
C3029       C  0.49736358  0.71977514  0.29497557     0.19600
C3030       C  0.98057072  0.69951121  0.32220151     0.24630
C3031       C  0.95161332  0.70389122  0.32421391    -0.23360
C3032       C  0.94092549  0.72786196  0.29352913     0.19530
F3033       F  0.91371621  0.73249011  0.29036813    -0.13320
F3034       F  0.94637643  0.76860942  0.23499079    -0.15680
F3035       F  0.99321057  0.67339511  0.34178930    -0.15690
F3036       F  0.52449912  0.71373358  0.29370697    -0.13320
C3037       C  0.96955552  0.60696432  0.41435392     0.24690
C3038       C  0.98698113  0.62462562  0.44425308    -0.23420
C3039       C  0.98374579  0.65910896  0.44781622     0.19600
C3040       C  0.96482330  0.67578833  0.42062639     0.24630
C3041       C  0.94878659  0.65889971  0.38691981    -0.23360
C3042       C  0.95029904  0.62362915  0.38679599     0.19530
F3043       F  0.93238669  0.60474437  0.36254768    -0.13320
F3044       F  0.46991946  0.57334418  0.41411016    -0.15680
F3045       F  0.96370351  0.70926479  0.42501313    -0.15690
F3046       F  0.99919926  0.67700705  0.47799471    -0.13320
C3047       C  0.90993666  0.73400599  0.39397571     0.24690
C3048       C  0.91060091  0.69913261  0.38575803    -0.23420
C3049       C  0.89116495  0.68022880  0.41123441     0.19600
C3050       C  0.87159803  0.69525674  0.44051781     0.24630
C3051       C  0.87017996  0.72993592  0.44587991    -0.23360
C3052       C  0.88984856  0.74897407  0.42245853     0.19530
F3053       F  0.89091967  0.78221949  0.42986097    -0.13320
F3054       F  0.92979190  0.75395575  0.37769642    -0.15680
F3055       F  0.85393358  0.67560681  0.46407101    -0.15690
F3056       F  0.89078797  0.64669518  0.40720833    -0.13320
C3057       C  0.61448768  0.89090894  0.28655405     0.24690
C3058       C  0.62696435  0.87334289  0.25058418    -0.23420
C3059       C  0.65540533  0.87090914  0.25042660     0.19600
C3060       C  0.67105517  0.88603539  0.28563275     0.24630
C3061       C  0.65889051  0.90525316  0.32174010    -0.23360
C3062       C  0.62979678  0.90746214  0.32031165     0.19530
F3063       F  0.61522723  0.92797716  0.34799790    -0.13320
F3064       F  0.58701157  0.89428657  0.28718068    -0.15680
F3065       F  0.69848753  0.88305873  0.28308625    -0.15690
F3066       F  0.66814202  0.85373775  0.21617220    -0.13320
C3067       C  0.67868203  0.96896897  0.28204861     0.24690
C3068       C  0.69303677  0.95051293  0.31654154    -0.23420
C3069       C  0.72142575  0.94781267  0.30880925     0.19600
C3070       C  0.73425284  0.96164878  0.27024110     0.24630
C3071       C  0.72016669  0.97992273  0.23586370    -0.23360
C3072       C  0.69196912  0.98352845  0.24300170     0.19530
F3073       F  0.67699805  0.00052253  0.21187690    -0.13320
F3074       F  0.65127846  0.97199595  0.28509553    -0.15680
F3075       F  0.76127102  0.95536968  0.26663979    -0.15690
F3076       F  0.73770478  0.92923184  0.33583355    -0.13320
C3077       C  0.63655516  0.49710215  0.42205612     0.24690
C3078       C  0.62177721  0.97796442  0.45407615    -0.23420
C3079       C  0.62682143  0.94385119  0.45553468     0.19600
C3080       C  0.64485491  0.92888139  0.42414469     0.24630
C3081       C  0.65897783  0.94746112  0.38960633    -0.23360
C3082       C  0.65535691  0.98239212  0.39108038     0.19530
F3083       F  0.67045936  0.50286170  0.36427993    -0.13320
F3084       F  0.63376896  0.53052081  0.42248571    -0.15680
F3085       F  0.64721252  0.89540769  0.42580542    -0.15690
F3086       F  0.61355515  0.92454702  0.48671485    -0.13320
C3087       C  0.73122170  0.91182438  0.45171996     0.24690
C3088       C  0.73426157  0.87720648  0.45275790    -0.23420
C3089       C  0.71862151  0.85839711  0.42118937     0.19600
C3090       C  0.70040597  0.87350434  0.38970113     0.24630
C3091       C  0.69796209  0.90869349  0.38677355    -0.23360
C3092       C  0.71388414  0.92718525  0.41941427     0.19530
F3093       F  0.71281376  0.96080006  0.41986978    -0.13320
F3094       F  0.74539497  0.93114283  0.48196757    -0.15680
F3095       F  0.68426002  0.85298830  0.36449714    -0.15690
F3096       F  0.71970818  0.82484808  0.42285525    -0.13320
C3097       C  0.62224381  0.65442891  0.76581351     0.24690
C3098       C  0.61772509  0.62029513  0.76767589    -0.23420
C3099       C  0.63136331  0.60179969  0.80128470     0.19600
C3100       C  0.65034936  0.61707423  0.83134009     0.24630
C3101       C  0.65616273  0.65159263  0.82838627    -0.23360
C3102       C  0.64077461  0.66981271  0.79544413     0.19530
F3103       F  0.64423003  0.70303185  0.79089233    -0.13320
F3104       F  0.60858435  0.67316338  0.73477984    -0.15680
F3105       F  0.66172479  0.59801627  0.86419404    -0.15690
F3106       F  0.62663241  0.56872094  0.80437824    -0.13320
C3107       C  0.65284973  0.72945098  0.88311071     0.24690
C3108       C  0.65485120  0.69437944  0.88632749    -0.23420
C3109       C  0.63443867  0.67791202  0.91311939     0.19600
C3110       C  0.61510685  0.69530941  0.93825071     0.24630
C3111       C  0.61482551  0.72976984  0.93771986    -0.23360
C3112       C  0.63314808  0.74680925  0.90905329     0.19530
F3113       F  0.63258022  0.78039005  0.90758874    -0.13320
F3114       F  0.66901976  0.74729152  0.85452800    -0.15680
F3115       F  0.59724314  0.67830840  0.96524578    -0.15690
F3116       F  0.63420740  0.64445484  0.91762621    -0.13320
C3117       C  0.71030892  0.62567186  0.88598110     0.24690
C3118       C  0.69220509  0.65139642  0.89877573    -0.23420
C3119       C  0.69101957  0.65876009  0.94754884     0.19600
C3120       C  0.70326275  0.63841320  0.98075564     0.24630
C3121       C  0.71997337  0.61213635  0.96756284    -0.23360
C3122       C  0.72410996  0.60679145  0.91961755     0.19530
F3123       F  0.74209919  0.58349092  0.90516428    -0.13320
F3124       F  0.71490432  0.61880987  0.84058297    -0.15680
F3125       F  0.70091055  0.64663910  0.02627746    -0.15690
F3126       F  0.68000929  0.68716557  0.96434438    -0.13320
C3127       C  0.70245781  0.68094280  0.78160983     0.24690
C3128       C  0.69821636  0.69008969  0.82895406    -0.23420
C3129       C  0.71641246  0.71483014  0.84617340     0.19600
C3130       C  0.73423749  0.73284217  0.81623180     0.24630
C3131       C  0.73508317  0.72626833  0.76798354    -0.23360
C3132       C  0.71923465  0.69928212  0.75202437     0.19530
F3133       F  0.72031543  0.68933956  0.70700509    -0.13320
F3134       F  0.69155666  0.65296224  0.76281667    -0.15680
F3135       F  0.75032977  0.75696483  0.83458970    -0.15690
F3136       F  0.71650747  0.72226184  0.89207053    -0.13320
C3137       C  0.56111103  0.85467272  0.65259890     0.24690
C3138       C  0.56477389  0.82000408  0.64435607    -0.23420
C3139       C  0.58080314  0.80298860  0.67749781     0.19600
C3140       C  0.59298581  0.81932371  0.71499194     0.24630
C3141       C  0.58971130  0.85346144  0.72215070    -0.23360
C3142       C  0.57354003  0.87094164  0.69073508     0.19530
F3143       F  0.57031354  0.90412866  0.69622969    -0.13320
F3144       F  0.54448997  0.87309492  0.62599837    -0.15680
F3145       F  0.60854484  0.80150476  0.74444057    -0.15690
F3146       F  0.58500438  0.76987836  0.67341029    -0.13320
C3147       C  0.55705127  0.99386058  0.03767245     0.24690
C3148       C  0.56447053  0.52667871  0.05374151    -0.23420
C3149       C  0.58114084  0.54484559  0.02254968     0.19600
C3150       C  0.58997317  0.53176584  0.98037180     0.24630
C3151       C  0.58427251  0.99890771  0.96743372    -0.23360
C3152       C  0.56763344  0.98015255  0.99646507     0.19530
F3153       F  0.56177069  0.94812649  0.98538318    -0.13320
F3154       F  0.53756007  0.97520254  0.05806419    -0.15680
F3155       F  0.60550194  0.55129322  0.95253220    -0.15690
F3156       F  0.58876574  0.57632513  0.03117670    -0.13320
C3157       C  0.78498238  0.86988288  0.99841355     0.24690
C3158       C  0.75987663  0.85902788  0.98144765    -0.23420
C3159       C  0.74802157  0.83103291  0.00263453     0.19600
C3160       C  0.75995399  0.81536458  0.04025653     0.24630
C3161       C  0.78552017  0.82562949  0.05884133    -0.23360
C3162       C  0.79749984  0.85389629  0.03629174     0.19530
F3163       F  0.82093880  0.86780276  0.05076524    -0.13320
F3164       F  0.79723710  0.89667020  0.97913685    -0.15680
F3165       F  0.74666711  0.78790592  0.05546584    -0.15690
F3166       F  0.72444020  0.81772724  0.98630718    -0.13320
C3167       C  0.76794476  0.54314543  0.67049920     0.24690
C3168       C  0.78354675  0.52614935  0.63618769    -0.23420
C3169       C  0.78457087  0.99109659  0.64069796     0.19600
C3170       C  0.77452515  0.97509172  0.68127600     0.24630
C3171       C  0.76190441  0.99317093  0.71737486    -0.23360
C3172       C  0.75790460  0.52716406  0.71008052     0.19530
F3173       F  0.74367385  0.54523982  0.74165745    -0.13320
F3174       F  0.76447770  0.57640441  0.66816387    -0.15680
F3175       F  0.77671164  0.94176177  0.68512136    -0.15690
F3176       F  0.79516324  0.97219495  0.60634835    -0.13320
C3177       C  0.84528948  0.57297443  0.71228758     0.24690
C3178       C  0.85808307  0.60250464  0.69968183    -0.23420
C3179       C  0.85458199  0.61357071  0.65379978     0.19600
C3180       C  0.83695821  0.59655111  0.62272755     0.24630
C3181       C  0.82158548  0.56843791  0.63695665    -0.23360
C3182       C  0.82851722  0.55589911  0.68182722     0.19530
F3183       F  0.82083402  0.52560603  0.69714484    -0.13320
F3184       F  0.85011218  0.55895172  0.75411090    -0.15680
F3185       F  0.83537567  0.60749565  0.57856956    -0.15690
F3186       F  0.86829250  0.64073299  0.63880524    -0.13320
C3187       C  0.00518279  0.61969973  0.04856855     0.24690
C3188       C  0.99219328  0.60361316  0.01173125    -0.23420
C3189       C  0.99414879  0.56937249  0.00766828     0.19600
C3190       C  0.51064936  0.55182429  0.03732450     0.24630
C3191       C  0.52852780  0.56798251  0.06919204    -0.23360
C3192       C  0.52226418  0.60196914  0.07824111     0.19530
F3193       F  0.52896994  0.61698060  0.11888847    -0.13320
F3194       F  0.00114886  0.65249412  0.05592832    -0.15680
F3195       F  0.50712858  0.51870583  0.03653800    -0.15690
F3196       F  0.97904861  0.55247091  0.97585657    -0.13320
C3197       C  0.84389688  0.76555434  0.09029214     0.24690
C3198       C  0.81874792  0.77749200  0.07181706    -0.23420
C3199       C  0.81069167  0.76233129  0.02942353     0.19600
C3200       C  0.82874163  0.74404167  0.00270568     0.24630
C3201       C  0.85553844  0.73887337  0.01711641    -0.23360
C3202       C  0.86244504  0.74772598  0.06256669     0.19530
F3203       F  0.88721937  0.74000434  0.07983866    -0.13320
F3204       F  0.85057015  0.77082436  0.13536879    -0.15680
F3205       F  0.81962564  0.73112311  0.96196411    -0.15690
F3206       F  0.78515640  0.76333547  0.01301802    -0.13320
C3207       C  0.99201695  0.77790631  0.69480164     0.24690
C3208       C  0.99240300  0.74346094  0.69788344    -0.23420
C3209       C  0.51264440  0.72585061  0.67395388     0.19600
C3210       C  0.53150635  0.74245210  0.64519503     0.24630
C3211       C  0.53018908  0.77726563  0.63932345    -0.23360
C3212       C  0.01055977  0.79455144  0.66677924     0.19530
F3213       F  0.00835597  0.82801574  0.66493317    -0.13320
F3214       F  0.97373399  0.79574162  0.71986331    -0.15680
F3215       F  0.55210269  0.72470517  0.62654700    -0.15690
F3216       F  0.51527776  0.69287265  0.68129633    -0.13320
C3217       C  0.82913751  0.85684690  0.20273872     0.24690
C3218       C  0.85667267  0.86086145  0.19144695    -0.23420
C3219       C  0.86504442  0.85151902  0.14688546     0.19600
C3220       C  0.84677170  0.83607048  0.11594266     0.24630
C3221       C  0.81932425  0.82768530  0.12903118    -0.23360
C3222       C  0.81099275  0.84083879  0.17277744     0.19530
F3223       F  0.78521685  0.83961753  0.18826244    -0.13320
F3224       F  0.81927797  0.86885128  0.24348818    -0.15680
F3225       F  0.85671032  0.82849769  0.07321759    -0.15690
F3226       F  0.89127691  0.85610742  0.13353309    -0.13320
C3227       C  0.99277375  0.51729337  0.18004946     0.24690
C3228       C  0.00066958  0.98566937  0.19239021    -0.23420
C3229       C  0.52533661  0.97330070  0.17623792     0.19600
C3230       C  0.54126562  0.99167569  0.14515801     0.24630
C3231       C  0.53343701  0.52418825  0.13056961    -0.23360
C3232       C  0.00917480  0.53671922  0.15180268     0.19530
F3233       F  0.00078410  0.56828256  0.14731179    -0.13320
F3234       F  0.96945520  0.53030868  0.19762665    -0.15680
F3235       F  0.56370939  0.97616627  0.12861839    -0.15690
F3236       F  0.53419153  0.94335333  0.19090861    -0.13320
C3237       C  0.98512808  0.82983440  0.53838102     0.24690
C3238       C  0.99580330  0.85556365  0.51203028    -0.23420
C3239       C  0.52411794  0.86125797  0.51333844     0.19600
C3240       C  0.54107221  0.84290465  0.54304200     0.24630
C3241       C  0.53028887  0.81800088  0.57232234    -0.23360
C3242       C  0.00200351  0.81020488  0.56558828     0.19530
F3243       F  0.99034439  0.78198963  0.58172613    -0.13320
F3244       F  0.95838764  0.82163641  0.53457732    -0.15680
F3245       F  0.56814585  0.84958986  0.54322294    -0.15690
F3246       F  0.53545743  0.88438039  0.48524449    -0.13320
C3247       C  0.84564609  0.52743989  0.49171012     0.24690
C3248       C  0.86206116  0.00078263  0.50502377    -0.23420
C3249       C  0.86015656  0.99067589  0.55162051     0.19600
C3250       C  0.84153821  0.00562111  0.58284272     0.24630
C3251       C  0.82274682  0.53024487  0.56845129    -0.23360
C3252       C  0.82723120  0.54230186  0.52249458     0.19530
F3253       F  0.81547296  0.57037407  0.50684552    -0.13320
F3254       F  0.84795188  0.54054789  0.44868371    -0.15680
F3255       F  0.84256078  0.99592929  0.62755834    -0.15690
F3256       F  0.87648333  0.96631265  0.56754595    -0.13320
C3257       C  0.89879025  0.93376871  0.93326352     0.24690
C3258       C  0.91113398  0.95118659  0.89621916    -0.23420
C3259       C  0.91156392  0.98636750  0.89949673     0.19600
C3260       C  0.90438178  0.50255999  0.94120014     0.24630
C3261       C  0.89565217  0.98435195  0.97985280    -0.23360
C3262       C  0.89246133  0.94983272  0.97476714     0.19530
F3263       F  0.88190467  0.93163202  0.00998330    -0.13320
F3264       F  0.89592326  0.90028431  0.93143815    -0.15680
F3265       F  0.90446591  0.53617605  0.94299325    -0.15690
F3266       F  0.91828895  0.50533561  0.86267009    -0.13320
C3267       C  0.94204167  0.94603796  0.77528485     0.24690
C3268       C  0.94422542  0.95112869  0.82398247    -0.23420
C3269       C  0.96495145  0.97378831  0.83866624     0.19600
C3270       C  0.48141642  0.99080115  0.80708999     0.24630
C3271       C  0.97753763  0.48684880  0.75936363    -0.23360
C3272       C  0.95709375  0.46478742  0.74415305     0.19530
F3273       F  0.95209636  0.45971912  0.69837612    -0.13320
F3274       F  0.92720259  0.92122362  0.75590034    -0.15680
F3275       F  0.50147760  0.01081634  0.82373964    -0.15690
F3276       F  0.46981113  0.97993363  0.88393576    -0.13320
C3277       C  0.88376081  0.92455203  0.81057950     0.24690
C3278       C  0.90506424  0.90823374  0.83480102    -0.23420
C3279       C  0.90496744  0.87297369  0.83132287     0.19600
C3280       C  0.88871244  0.85628244  0.79809318     0.24630
C3281       C  0.86981125  0.87333586  0.77108271    -0.23360
C3282       C  0.86673595  0.90743267  0.77916988     0.19530
F3283       F  0.84778424  0.92456774  0.75525661    -0.13320
F3284       F  0.88092729  0.95791540  0.81406572    -0.15680
F3285       F  0.89244725  0.82345901  0.79034205    -0.15690
F3286       F  0.91979325  0.85402300  0.86014111    -0.13320
C3287       C  0.95858319  0.92255190  0.93312696     0.24690
C3288       C  0.95012512  0.91133102  0.88820042    -0.23420
C3289       C  0.96638879  0.88596160  0.86822417     0.19600
C3290       C  0.98450569  0.86748138  0.89574107     0.24630
C3291       C  0.98870742  0.87618849  0.94258121    -0.23360
C3292       C  0.97710935  0.90550641  0.95904402     0.19530
F3293       F  0.98412116  0.91892794  0.00072786    -0.13320
F3294       F  0.95086026  0.95166972  0.95269330    -0.15680
F3295       F  0.49781144  0.84142491  0.87658115    -0.15690
F3296       F  0.96426870  0.87844389  0.82247724    -0.13320
loop_ 
_geom_bond_atom_site_label_1 
_geom_bond_atom_site_label_2 
_geom_bond_distance 
_geom_bond_site_symmetry_2 
_ccdc_geom_bond_type 
C1          C786   1.563       .  S
C1          C796   1.573       .  S
C1          C806   1.591       .  S
C1          C816   1.580       .  S
O2          Zr14   2.328       .  S
O2            C4   1.266       .  A
O3          Zr40   2.432       .  S
O3            C4   1.294       .  A
C4         C1020   1.422       .  S
O5          Zr17   2.417       .  S
O5            C7   1.286       .  A
O6          Zr41   2.396       .  S
O6            C7   1.279       .  A
C7         C1170   1.428       .  S
O8          Zr17   2.471       .  S
O8           C10   1.294       .  A
O9          Zr40   2.458       .  S
O9           C10   1.293       .  A
C10         C776   1.517       .  S
O11         Zr14   2.415       .  S
O11          C13   1.281       .  A
O12         Zr41   2.426       .  S
O12          C13   1.285       .  A
C13         C756   1.459       .  S
Zr14         O20   2.389       .  S
Zr14         O21   2.330       .  S
Zr14         O44   2.324       .  S
Zr14         O46   2.374       .  S
Zr14        O839   2.434       .  S
Zr14       O1664   2.438       .  S
O15        Zr838   2.434   1_545  S
O15          H58   0.989       .  S
O16       Zr1662   2.438   1_455  S
O16          H57   0.990       .  S
O16          H61   0.990       .  S
Zr17         O21   2.375       .  S
Zr17         O20   2.353       .  S
Zr17         O45   2.348       .  S
Zr17         O47   2.383       .  S
Zr17         O19   2.434       .  S
Zr17        O842   2.436       .  S
O18        Zr841   2.436   1_545  S
O18          H59   0.990       .  S
O18          H62   0.990       .  S
O19          H52   0.990       .  S
O20         Zr40   2.393       .  S
O21         Zr41   2.384       .  S
O21          H48   0.966       .  S
O22         Zr34   2.365       .  S
O22          C24   1.271       .  A
O23         Zr41   2.393       .  S
O23          C24   1.284       .  A
C24        C1912   1.417       .  S
O25         Zr37   2.371       .  S
O25          C27   1.275       .  A
O26         Zr40   2.445       .  S
O26          C27   1.295       .  A
C27         C446   1.446       .  S
O28         Zr37   2.433       .  S
O28          C30   1.286       .  A
O29         Zr41   2.448       .  S
O29          C30   1.289       .  A
C30         C746   1.495       .  S
O31         Zr34   2.435       .  S
O31          C33   1.283       .  A
O32         Zr40   2.474       .  S
O32          C33   1.296       .  A
C33         C766   1.488       .  S
Zr34         O42   2.387       .  S
Zr34         O43   2.350       .  S
Zr34         O46   2.345       .  S
Zr34         O44   2.376       .  S
Zr34         O35   2.421       .  S
Zr34       O1684   2.437       .  S
O35          H55   0.989       .  S
O35          H60   0.990       .  S
O36       Zr1682   2.437   1_455  S
O36          H56   0.991       .  S
Zr37         O43   2.394       .  S
Zr37         O42   2.352       .  S
Zr37         O47   2.351       .  S
Zr37         O45   2.373       .  S
Zr37         O38   2.436       .  S
Zr37         O39   2.436       .  S
O38          H54   0.990       .  S
O39          H53   0.990       .  S
O39          H63   0.990       .  S
Zr40         O43   2.388       .  S
Zr40         O45   2.384       .  S
Zr40         O46   2.381       .  S
Zr41         O42   2.386       .  S
Zr41         O44   2.368       .  S
Zr41         O47   2.379       .  S
O42          H50   0.966       .  S
O45          H49   0.965       .  S
O46          H51   0.964       .  S
O64         Zr76   2.334       .  S
O64          C66   1.267       .  A
O65        Zr102   2.391       .  S
O65          C66   1.283       .  A
C66        C1932   1.409       .  S
O67         Zr79   2.355       .  S
O67          C69   1.272       .  A
O68        Zr103   2.405       .  S
O68          C69   1.286       .  A
C69         C443   1.425       .  S
O70         Zr79   2.407       .  S
O70          C72   1.282       .  A
O71        Zr102   2.450       .  S
O71          C72   1.288       .  A
C72         C729   1.484   1_556  S
O73         Zr76   2.414       .  S
O73          C75   1.281       .  A
O74        Zr103   2.452       .  S
O74          C75   1.290       .  A
C75         C736   1.475       .  S
Zr76         O82   2.381       .  S
Zr76         O83   2.339       .  S
Zr76        O106   2.331       .  S
Zr76        O108   2.383       .  S
Zr76         O77   2.435       .  S
Zr76       O1726   2.439       .  S
O77         H120   0.990       .  S
O78       Zr1724   2.439   1_455  S
O78         H119   0.990       .  S
O78         H123   0.990       .  S
Zr79         O83   2.386       .  S
Zr79         O82   2.344       .  S
Zr79        O107   2.345       .  S
Zr79        O109   2.369       .  S
Zr79         O80   2.426       .  S
Zr79         O81   2.434       .  S
O80         H121   0.988       .  S
O80         H124   0.990       .  S
O81         H114   0.990       .  S
O82        Zr102   2.379       .  S
O83        Zr103   2.384       .  S
O83         H110   0.966       .  S
O84         Zr96   2.348       .  S
O84          C86   1.271       .  A
O85        Zr103   2.407       .  S
O85          C86   1.285       .  A
C86        C1841   1.421       .  S
O87         Zr99   2.426       .  S
O87          C89   1.288       .  A
O88        Zr102   2.388       .  S
O88          C89   1.279       .  A
C89         C323   1.440   1_556  S
O90         Zr99   2.460       .  S
O90          C92   1.293       .  A
O91        Zr103   2.425       .  S
O91          C92   1.285       .  A
C92         C706   1.498       .  S
O93         Zr96   2.417       .  S
O93          C95   1.283       .  A
O94        Zr102   2.417       .  S
O94          C95   1.283       .  A
C95         C716   1.465   1_556  S
Zr96        O104   2.371       .  S
Zr96        O105   2.331       .  S
Zr96        O108   2.339       .  S
Zr96        O106   2.372       .  S
Zr96         O97   2.434       .  S
Zr96       O1746   2.435       .  S
O97         H117   0.990       .  S
O97         H122   0.990       .  S
O98       Zr1744   2.435   1_455  S
O98         H118   0.990       .  S
Zr99        O105   2.373       .  S
Zr99        O104   2.358       .  S
Zr99        O109   2.344       .  S
Zr99        O107   2.374       .  S
Zr99        O100   2.433       .  S
Zr99        O101   2.432       .  S
O100        H116   0.990       .  S
O101        H115   0.990       .  S
O101        H125   0.990       .  S
Zr102       O105   2.383       .  S
Zr102       O107   2.382       .  S
Zr102       O108   2.380       .  S
Zr103       O104   2.393       .  S
Zr103       O106   2.360       .  S
Zr103       O109   2.379       .  S
O104        H112   0.966       .  S
O107        H111   0.966       .  S
O108        H113   0.965       .  S
O126       Zr138   2.339       .  S
O126        C128   1.263       .  A
O127       Zr164   2.523       .  S
O127        C128   1.313       .  A
C128       C1150   1.460   1_556  S
O129       Zr141   2.346       .  S
O129        C131   1.269       .  A
O130       Zr165   2.438       .  S
O130        C131   1.288       .  A
C131        C261   1.428       .  S
O132       Zr141   2.380       .  S
O132        C134   1.275       .  A
O133       Zr164   2.512       .  S
O133        C134   1.303       .  A
C134        C686   1.507       .  S
O135       Zr138   2.374       .  S
O135        C137   1.273       .  A
O136       Zr165   2.479       .  S
O136        C137   1.295       .  A
C137        C679   1.483       .  S
Zr138       O144   2.357       .  S
Zr138       O145   2.349       .  S
Zr138       O168   2.343       .  S
Zr138       O170   2.375       .  S
Zr138       O139   2.438       .  S
Zr138       O964   2.428       .  S
O139        H182   0.991   1_556  S
O140       Zr962   2.428   1_545  S
O140        H181   0.989       .  S
O140        H185   0.990       .  S
Zr141       O145   2.370       .  S
Zr141       O144   2.330       .  S
Zr141       O169   2.337       .  S
Zr141       O171   2.359       .  S
Zr141       O142   2.432       .  S
Zr141       O143   2.434       .  S
O142        H183   0.990   1_556  S
O142        H186   0.990   1_556  S
O143        H176   0.990       .  S
O144       Zr164   2.362       .  S
O145       Zr165   2.387       .  S
O145        H172   0.965       .  S
O146       Zr158   2.382       .  S
O146        C148   1.275       .  A
O147       Zr165   2.407       .  S
O147        C148   1.283       .  A
C148       C1040   1.424       .  S
O149       Zr161   2.369       .  S
O149        C151   1.274       .  A
O150       Zr164   2.455       .  S
O150        C151   1.293       .  A
C151        C466   1.442       .  S
O152       Zr161   2.418       .  S
O152        C154   1.283       .  A
O153       Zr165   2.492       .  S
O153        C154   1.299       .  A
C154        C669   1.494       .  S
O155       Zr158   2.395       .  S
O155        C157   1.277       .  A
O156       Zr164   2.539       .  S
O156        C157   1.311       .  A
C157        C699   1.505       .  S
Zr158       O166   2.368       .  S
Zr158       O167   2.337       .  S
Zr158       O170   2.368       .  S
Zr158       O168   2.369       .  S
Zr158       O159   2.436       .  S
Zr158       O984   2.431       .  S
O159        H179   0.990       .  S
O159        H184   0.990       .  S
O160       Zr982   2.431   1_545  S
O160        H180   0.987       .  S
Zr161       O167   2.359       .  S
Zr161       O166   2.350       .  S
Zr161       O171   2.348       .  S
Zr161       O169   2.369       .  S
Zr161       O162   2.433       .  S
Zr161       O163   2.435       .  S
O162        H178   0.990       .  S
O163        H177   0.990       .  S
O163        H187   0.990       .  S
Zr164       O167   2.388       .  S
Zr164       O169   2.412       .  S
Zr164       O170   2.411       .  S
Zr165       O166   2.397       .  S
Zr165       O168   2.408       .  S
Zr165       O171   2.398       .  S
O166        H174   0.965       .  S
O169        H173   0.966       .  S
O170        H175   0.966       .  S
C188        C629   1.579       .  S
C188        C636   1.569       .  S
C188        C646   1.595       .  S
C188        C656   1.599       .  S
C189        C589   1.585       .  S
C189        C596   1.601       .  S
C189        C609   1.580       .  S
C189        C619   1.605       .  S
C190        C546   1.589       .  S
C190        C559   1.587       .  S
C190        C569   1.576       .  S
C190        C576   1.601       .  S
O191      Zr1851   2.359       .  S
O191       C1841   1.271       .  A
O192       Zr229   2.394       .  S
O192        C193   1.285   1_455  A
C193       O1839   1.271       .  A
C193       C1734   1.421       .  S
O194      Zr1854   2.325   1_565  S
O194        C196   1.266       .  A
O195       Zr230   2.433       .  S
O195       C1844   1.293   1_445  A
C196       O1843   1.293   1_565  A
C196        C828   1.422       .  S
O197      Zr1854   2.399   1_565  S
O197       C1847   1.279   1_565  A
O198       Zr229   2.435       .  S
O198        C199   1.287   1_455  A
C199       O1845   1.279   1_545  A
C199       C2447   1.488   1_545  S
O200      Zr1851   2.412       .  S
O200       C1850   1.281       .  A
O201       Zr230   2.490       .  S
O201        C202   1.298       .  A
C202       O1848   1.281   1_455  A
C202       C2214   1.493   1_455  S
Zr203      O1839   2.359   1_455  S
Zr203      O1848   2.412   1_455  S
Zr203       O209   2.377       .  S
Zr203       O210   2.338       .  S
Zr203       O233   2.341       .  S
Zr203       O235   2.383       .  S
Zr203       O205   2.422       .  S
Zr203      O1852   2.434   1_455  S
O204      Zr1851   2.434       .  S
O204        H247   0.990       .  S
O205        H246   0.987       .  S
O205       H1898   0.990       .  S
Zr206      O1842   2.325   1_445  S
Zr206      O1845   2.399   1_445  S
Zr206       O210   2.372       .  S
Zr206       O209   2.335       .  S
Zr206       O234   2.330       .  S
Zr206       O236   2.380       .  S
Zr206      O1855   2.438   1_455  S
Zr206      O1032   2.438   1_545  S
O207      Zr1854   2.438       .  S
O207        H248   0.990       .  S
O207        H251   0.990   1_545  S
O208      Zr1030   2.438       .  S
O208        H241   0.990       .  S
O209       Zr229   2.367       .  S
O210       Zr230   2.376       .  S
O210       H1885   0.965   1_455  S
O211       Zr223   2.375       .  S
O211        C213   1.275       .  A
O212       Zr230   2.426       .  S
O212        C213   1.292       .  A
C213        C387   1.438       .  S
O214       Zr226   2.416       .  S
O214        C216   1.286       .  A
O215       Zr229   2.382       .  S
O215        C216   1.277   1_545  A
C216        C972   1.424       .  S
O217       Zr226   2.461       .  S
O217        C219   1.292       .  A
O218       Zr230   2.461       .  S
O218        C219   1.294   1_545  A
C219       C1430   1.498       .  S
O220       Zr223   2.432       .  S
O220        C222   1.286       .  A
O221       Zr229   2.443       .  S
O221        C222   1.288       .  A
C222        C626   1.481       .  S
Zr223       O231   2.375       .  S
Zr223       O232   2.349       .  S
Zr223       O235   2.353       .  S
Zr223       O233   2.388       .  S
Zr223       O224   2.437       .  S
Zr223       O225   2.437       .  S
O224        H244   0.990       .  S
O224        H249   0.990       .  S
O225        H245   0.990       .  S
Zr226       O232   2.380   1_565  S
Zr226       O231   2.349   1_565  S
Zr226       O236   2.354   1_565  S
Zr226       O234   2.369   1_565  S
Zr226       O227   2.432       .  S
Zr226      O1052   2.435       .  S
O227        H243   0.990   1_565  S
O228      Zr1050   2.435       .  S
O228        H242   0.990       .  S
O228        H252   0.990       .  S
Zr229       O232   2.380       .  S
Zr229       O234   2.383       .  S
Zr229       O235   2.384       .  S
Zr230       O231   2.390       .  S
Zr230       O233   2.384       .  S
Zr230       O236   2.388       .  S
O231        H239   0.965       .  S
O234       H1062   0.966   1_545  S
O235        H240   0.966       .  S
H237       O1858   0.965       .  S
H238       O1058   0.966       .  S
H250       O1853   0.990       .  S
O253      Zr1913   2.426       .  S
O253       C1903   1.284   1_554  A
O254       Zr291   2.412   1_556  S
O254        C255   1.279       .  A
C255       O1901   1.284   1_556  A
C255       C2467   1.485   1_455  S
O256       Zr268   2.478       .  S
O256        C258   1.294       .  A
O257       Zr292   2.416       .  S
O257        C258   1.286       .  A
C258        C586   1.488       .  S
O259       Zr268   2.436       .  S
O259        C261   1.291   1_554  A
O260       Zr291   2.372   1_556  S
O260        C261   1.273       .  A
O262      Zr1913   2.344       .  S
O262       C1912   1.270       .  A
O263       Zr292   2.404       .  S
O263        C264   1.285       .  A
C264       O1910   1.270   1_455  A
C264       C1672   1.417   1_455  S
Zr265      O1901   2.426       .  S
Zr265      O1910   2.344   1_455  S
Zr265       O271   2.321       .  S
Zr265       O272   2.378       .  S
Zr265       O295   2.368       .  S
Zr265       O297   2.336       .  S
Zr265       O266   2.426       .  S
Zr265      O1915   2.438   1_455  S
O266        H309   0.989       .  S
O267      Zr1913   2.438       .  S
O267        H308   0.990       .  S
O267        H312   0.990       .  S
Zr268       O272   2.359       .  S
Zr268       O271   2.369       .  S
Zr268       O296   2.380       .  S
Zr268       O298   2.347       .  S
Zr268       O269   2.436       .  S
Zr268       O270   2.430       .  S
O269        H310   0.990       .  S
O269        H313   0.990       .  S
O270        H303   0.990       .  S
O271       Zr291   2.382       .  S
O272       Zr292   2.395       .  S
O272        H299   0.966       .  S
O273      Zr1933   2.416       .  S
O273       C1923   1.281       .  A
O274       Zr292   2.469       .  S
O274        C275   1.294       .  A
C275       O1921   1.281   1_455  A
C275       C2204   1.487   1_455  S
O276       Zr288   2.418       .  S
O276        C278   1.283   1_554  A
O277       Zr291   2.436   1_556  S
O277        C278   1.285       .  A
C278        C639   1.468       .  S
O279       Zr288   2.373       .  S
O279        C281   1.275       .  A
O280       Zr292   2.405       .  S
O280        C281   1.286       .  A
C281        C390   1.431       .  S
O282      Zr1933   2.332       .  S
O282       C1932   1.267   1_554  A
O283       Zr291   2.391   1_556  S
O283        C284   1.284   1_455  A
C284       O1930   1.267   1_556  A
C284       C1714   1.409       .  S
Zr285      O1921   2.416   1_455  S
Zr285      O1930   2.332   1_455  S
Zr285       O293   2.345       .  S
Zr285       O294   2.390       .  S
Zr285       O297   2.387       .  S
Zr285       O295   2.322       .  S
Zr285       O286   2.435       .  S
Zr285      O1935   2.434   1_455  S
O286        H306   0.989       .  S
O286       H1959   0.990   1_455  S
O287      Zr1933   2.434       .  S
O287        H307   0.990       .  S
Zr288       O294   2.351       .  S
Zr288       O293   2.381       .  S
Zr288       O298   2.371       .  S
Zr288       O296   2.352       .  S
Zr288       O289   2.428       .  S
Zr288       O290   2.439       .  S
O289        H305   0.990       .  S
O290        H304   0.990       .  S
O290        H314   0.990       .  S
Zr291       O294   2.376       .  S
Zr291       O296   2.387       .  S
Zr291       O297   2.379       .  S
Zr292       O293   2.373       .  S
Zr292       O295   2.357       .  S
Zr292       O298   2.376       .  S
O293        H301   0.965       .  S
O296        H300   0.966       .  S
O297       H1950   0.966   1_455  S
H302       O1945   0.966       .  S
H311       O1934   0.990       .  S
O315      Zr1151   2.348       .  S
O315       C1141   1.268       .  A
O316       Zr353   2.499       .  S
O316        C317   1.299       .  A
C317       O1139   1.268   1_545  A
C317       C1613   1.473   1_544  S
O318       Zr330   2.435   1_556  S
O318        C320   1.284   1_556  A
O319       Zr354   2.512       .  S
O319        C320   1.306       .  A
C320        C649   1.502   1_554  S
O321       Zr330   2.417       .  S
O321        C323   1.276       .  A
O322       Zr353   2.408       .  S
O322        C323   1.279       .  A
O324      Zr1151   2.325   1_556  S
O324       C1150   1.263   1_556  A
O325       Zr354   2.529       .  S
O325        C326   1.313   1_545  A
C326       O1148   1.263   1_554  A
C326        C952   1.460   1_554  S
Zr327      O1139   2.348       .  S
Zr327      O1148   2.325   1_554  S
Zr327       O333   2.332   1_565  S
Zr327       O334   2.366   1_565  S
Zr327       O357   2.360       .  S
Zr327       O359   2.343   1_565  S
Zr327       O328   2.435   1_554  S
Zr327      O1153   2.433       .  S
O328        H371   0.991   1_565  S
O329      Zr1151   2.433       .  S
O329        H370   0.988       .  S
O329        H374   0.990       .  S
Zr330       O334   2.362       .  S
Zr330       O333   2.359       .  S
Zr330       O358   2.376       .  S
Zr330       O360   2.370       .  S
Zr330       O331   2.437   1_554  S
Zr330       O332   2.437       .  S
O331        H372   0.990       .  S
O331        H375   0.990       .  S
O332        H365   0.990       .  S
O333       Zr353   2.385       .  S
O334       Zr354   2.395       .  S
O334        H361   0.963       .  S
O335      Zr1171   2.388       .  S
O335       C1161   1.275       .  A
O336       Zr354   2.561       .  S
O336        C337   1.312   1_545  A
C337       O1159   1.275       .  A
C337       C1423   1.538       .  S
O338       Zr350   2.410       .  S
O338        C340   1.281       .  A
O339       Zr353   2.508       .  S
O339        C340   1.301       .  A
C340        C549   1.521       .  S
O341       Zr350   2.383       .  S
O341        C343   1.276       .  A
O342       Zr354   2.488       .  S
O342        C343   1.300       .  A
C343        C407   1.461       .  S
O344      Zr1171   2.370       .  S
O344       C1170   1.274       .  A
O345       Zr353   2.424       .  S
O345        C346   1.286   1_545  A
C346       O1168   1.274       .  A
C346        C831   1.428       .  S
Zr347      O1159   2.387   1_545  S
Zr347      O1168   2.370   1_545  S
Zr347       O355   2.339       .  S
Zr347       O356   2.360       .  S
Zr347       O359   2.360       .  S
Zr347       O357   2.367   1_545  S
Zr347       O348   2.438       .  S
Zr347      O1173   2.436   1_545  S
O348        H368   0.990       .  S
O348       H1197   0.990   1_545  S
O349      Zr1171   2.436       .  S
O349        H369   0.990       .  S
Zr350       O356   2.351       .  S
Zr350       O355   2.360       .  S
Zr350       O360   2.371       .  S
Zr350       O358   2.346       .  S
Zr350       O351   2.434       .  S
Zr350       O352   2.426       .  S
O351        H367   0.991       .  S
O352        H366   0.989       .  S
O352        H376   0.990       .  S
Zr353       O356   2.383       .  S
Zr353       O358   2.419       .  S
Zr353       O359   2.404       .  S
Zr354       O355   2.399       .  S
Zr354       O357   2.406   1_545  S
Zr354       O360   2.424       .  S
O355        H363   0.964       .  S
O358        H362   0.966       .  S
O359       H1188   0.966   1_545  S
H364       O1183   0.966       .  S
H373       O1172   0.990       .  S
C377        C539   1.609       .  S
C377        C689   1.607       .  S
C377        C726   1.589       .  S
C377        C749   1.603       .  S
C378        C526   1.604       .  S
C378        C666   1.584       .  S
C378        C739   1.572       .  S
C378        C769   1.588       .  S
O379       Zr391   2.449       .  S
O379        C381   1.287       .  A
O380       Zr417   2.514       .  S
O380        C381   1.304       .  A
C381        C529   1.520       .  S
O382       Zr394   2.452       .  S
O382        C384   1.288       .  A
O383       Zr418   2.458       .  S
O383        C384   1.292       .  A
C384        C509   1.500       .  S
O385       Zr394   2.366       .  S
O385        C387   1.274       .  A
O386       Zr417   2.430       .  S
O386        C387   1.292       .  A
O388       Zr391   2.372       .  S
O388        C390   1.275       .  A
O389       Zr418   2.408       .  S
O389        C390   1.287       .  A
Zr391       O397   2.340       .  S
Zr391       O398   2.392       .  S
Zr391       O421   2.386       .  S
Zr391       O423   2.356       .  S
Zr391       O392   2.434       .  S
Zr391       O393   2.438       .  S
O392        H435   0.990       .  S
O393        H434   0.990       .  S
O393        H438   0.990       .  S
Zr394       O398   2.345       .  S
Zr394       O397   2.384       .  S
Zr394       O422   2.389       .  S
Zr394       O424   2.339       .  S
Zr394       O395   2.438       .  S
Zr394       O396   2.431       .  S
O395        H436   0.990       .  S
O395        H439   0.990       .  S
O396        H429   0.990       .  S
O397       Zr417   2.378       .  S
O398       Zr418   2.384       .  S
O398        H425   0.966       .  S
O399       Zr411   2.444       .  S
O399        C401   1.286       .  A
O400       Zr418   2.469       .  S
O400        C401   1.294       .  A
C401        C536   1.492       .  S
O402       Zr414   2.514       .  S
O402        C404   1.303       .  A
O403       Zr417   2.474       .  S
O403        C404   1.297       .  A
C404        C516   1.528       .  S
O405       Zr414   2.467       .  S
O405        C407   1.296       .  A
O406       Zr418   2.414       .  S
O406        C407   1.283       .  A
O408       Zr411   2.391       .  S
O408        C410   1.278       .  A
O409       Zr417   2.450       .  S
O409        C410   1.295       .  A
C410        C463   1.458       .  S
Zr411       O419   2.361       .  S
Zr411       O420   2.380       .  S
Zr411       O423   2.393       .  S
Zr411       O421   2.355       .  S
Zr411       O412   2.437       .  S
Zr411       O413   2.431       .  S
O412        H432   0.990       .  S
O412        H437   0.990       .  S
O413        H433   0.990       .  S
Zr414       O420   2.363       .  S
Zr414       O419   2.393       .  S
Zr414       O424   2.379       .  S
Zr414       O422   2.364       .  S
Zr414       O415   2.434       .  S
Zr414       O416   2.436       .  S
O415        H431   0.990       .  S
O416        H430   0.990       .  S
O416        H440   0.990       .  S
Zr417       O420   2.387       .  S
Zr417       O422   2.409       .  S
Zr417       O423   2.386       .  S
Zr418       O419   2.394       .  S
Zr418       O421   2.384       .  S
Zr418       O424   2.386       .  S
O419        H427   0.966       .  S
O422        H426   0.966       .  S
O423        H428   0.966       .  S
O441       Zr453   2.361       .  S
O441        C443   1.273       .  A
O442       Zr479   2.402       .  S
O442        C443   1.286       .  A
O444       Zr456   2.374       .  S
O444        C446   1.275       .  A
O445       Zr480   2.445       .  S
O445        C446   1.295       .  A
O447       Zr456   2.469       .  S
O447        C449   1.292       .  A
O448       Zr479   2.461       .  S
O448        C449   1.292       .  A
C449        C809   1.501       .  S
O450       Zr453   2.452       .  S
O450        C452   1.288       .  A
O451       Zr480   2.506       .  S
O451        C452   1.302       .  A
C452        C579   1.515       .  S
Zr453       O459   2.394       .  S
Zr453       O460   2.342       .  S
Zr453       O483   2.343       .  S
Zr453       O485   2.386       .  S
Zr453       O454   2.434       .  S
Zr453       O455   2.434       .  S
O454        H497   0.990       .  S
O455        H496   0.990       .  S
O455        H500   0.990       .  S
Zr456       O460   2.390       .  S
Zr456       O459   2.345       .  S
Zr456       O484   2.336       .  S
Zr456       O486   2.395       .  S
Zr456       O457   2.436       .  S
Zr456       O458   2.435       .  S
O457        H498   0.990       .  S
O457        H501   0.990       .  S
O458        H491   0.990       .  S
O459       Zr479   2.383       .  S
O460       Zr480   2.387       .  S
O460        H487   0.965       .  S
O461       Zr473   2.392       .  S
O461        C463   1.279       .  A
O462       Zr480   2.456       .  S
O462        C463   1.297       .  A
O464       Zr476   2.440       .  S
O464        C466   1.291       .  A
O465       Zr479   2.405       .  S
O465        C466   1.281       .  A
O467       Zr476   2.490       .  S
O467        C469   1.297       .  A
O468       Zr480   2.483       .  S
O468        C469   1.298       .  A
C469        C616   1.520       .  S
O470       Zr473   2.447       .  S
O470        C472   1.289       .  A
O471       Zr479   2.496       .  S
O471        C472   1.298       .  A
C472        C659   1.528       .  S
Zr473       O481   2.378       .  S
Zr473       O482   2.353       .  S
Zr473       O485   2.353       .  S
Zr473       O483   2.396       .  S
Zr473       O474   2.437       .  S
Zr473       O475   2.433       .  S
O474        H494   0.990       .  S
O474        H499   0.990       .  S
O475        H495   0.990       .  S
Zr476       O482   2.387       .  S
Zr476       O481   2.349       .  S
Zr476       O486   2.361       .  S
Zr476       O484   2.383       .  S
Zr476       O477   2.433       .  S
Zr476       O478   2.423       .  S
O477        H493   0.990       .  S
O478        H492   0.990       .  S
O478        H502   0.990       .  S
Zr479       O482   2.391       .  S
Zr479       O484   2.395       .  S
Zr479       O485   2.392       .  S
Zr480       O481   2.394       .  S
Zr480       O483   2.388       .  S
Zr480       O486   2.400       .  S
O481        H489   0.965       .  S
O484        H488   0.965       .  S
O485        H490   0.966       .  S
C503        C519   1.602       .  S
C503        C696   1.589       .  S
C503        C709   1.590       .  S
C503        C779   1.597       .  S
C504        C506   1.621       .  S
C504        C676   1.596       .  S
C504        C719   1.586       .  S
C504        C759   1.590       .  S
C505        C506   1.442       .  A
C505        C510   1.414       .  A
C505        F512   1.355       .  S
C506        C507   1.431       .  A
C507        C508   1.405       .  A
C507        F514   1.340       .  S
C508        C509   1.396       .  A
C508        F513   1.359       .  S
C509        C510   1.397       .  A
C510        F511   1.355       .  S
C515        C516   1.414       .  A
C515        C520   1.426       .  A
C515        F522   1.355       .  S
C516        C517   1.407       .  A
C517        C518   1.417       .  A
C517        F524   1.358       .  S
C518        C519   1.429       .  A
C518        F523   1.358       .  S
C519        C520   1.426       .  A
C520        F521   1.354       .  S
C525        C526   1.423       .  A
C525        C530   1.419       .  A
C525        F532   1.356       .  S
C526        C527   1.436       .  A
C527        C528   1.419       .  A
C527        F534   1.355       .  S
C528        C529   1.404       .  A
C528        F533   1.358       .  S
C529        C530   1.413       .  A
C530        F531   1.358       .  S
C535        C536   1.400       .  A
C535        C540   1.413       .  A
C535        F542   1.357       .  S
C536        C537   1.393       .  A
C537        C538   1.406       .  A
C537        F544   1.356       .  S
C538        C539   1.435       .  A
C538        F543   1.350       .  S
C539        C540   1.436       .  A
C540        F541   1.359       .  S
C545        C546   1.422       .  A
C545        C550   1.396       .  A
C545        F552   1.356       .  S
C546        C547   1.431       .  A
C547        C548   1.422       .  A
C547        F554   1.357       .  S
C548        C549   1.409       .  A
C548        F553   1.357       .  S
C549        C550   1.416       .  A
C550        F551   1.359       .  S
C555        C556   1.406       .  A
C555        C560   1.407       .  A
C555        F562   1.358       .  S
C556       C1923   1.487       .  S
C556       C2205   1.395       .  A
C557       C2204   1.395       .  A
C557       C2206   1.403       .  A
C557        F564   1.359   1_655  S
C558        C559   1.438       .  A
C558       C2205   1.403       .  A
C558        F563   1.355       .  S
C559        C560   1.421       .  A
C560        F561   1.356       .  S
C565        C566   1.406       .  A
C565        C570   1.416       .  A
C565       F2220   1.357       .  S
C566       C1850   1.493       .  S
C566        C567   1.404       .  A
C567        C568   1.399       .  A
C567        F574   1.359       .  S
C568        C569   1.422       .  A
C568        F573   1.357       .  S
C569        C570   1.426       .  A
C570        F571   1.355       .  S
F572       C2213   1.357       .  S
C575        C576   1.426       .  A
C575        C580   1.419       .  A
C575        F582   1.348       .  S
C576        C577   1.426       .  A
C577        C578   1.416       .  A
C577        F584   1.357       .  S
C578        C579   1.409       .  A
C578        F583   1.358       .  S
C579        C580   1.407       .  A
C580        F581   1.357       .  S
C585        C586   1.396       .  A
C585        C590   1.397       .  A
C585        F592   1.359       .  S
C586        C587   1.403       .  A
C587        C588   1.410       .  A
C587        F594   1.357       .  S
C588        C589   1.427       .  A
C588        F593   1.357       .  S
C589        C590   1.435       .  A
C590        F591   1.354       .  S
C595        C596   1.438       .  A
C595        C600   1.430       .  A
C595        F602   1.357       .  S
C596        C597   1.418       .  A
C597        C598   1.397       .  A
C597        F604   1.354       .  S
C598        C599   1.425       .  A
C598        F603   1.358       .  S
C599       C1161   1.538       .  S
C599        C600   1.410       .  A
C600        F601   1.357       .  S
C605       C1430   1.407       .  A
C605       C1434   1.415       .  A
C605        F612   1.356   1_565  S
C606       C1043   1.498       .  S
C606        C607   1.401       .  A
C606       C1429   1.407       .  A
C607        C608   1.403       .  A
C607        F614   1.358       .  S
C608        C609   1.429       .  A
C608        F613   1.358       .  S
C609        C610   1.422       .  A
C610       C1429   1.415       .  A
C610       F1435   1.354       .  S
F611       C1434   1.354   1_545  S
C615        C616   1.406       .  A
C615        C620   1.415       .  A
C615        F622   1.358       .  S
C616        C617   1.409       .  A
C617        C618   1.422       .  A
C617        F624   1.356       .  S
C618        C619   1.429       .  A
C618        F623   1.354       .  S
C619        C620   1.430       .  A
C620        F621   1.358       .  S
C625        C626   1.395       .  A
C625        C630   1.392       .  A
C625        F632   1.359       .  S
C626        C627   1.404       .  A
C627        C628   1.413       .  A
C627        F634   1.357       .  S
C628        C629   1.423       .  A
C628        F633   1.351       .  S
C629        C630   1.429       .  A
C630        F631   1.357       .  S
C635        C636   1.423       .  A
C635        C640   1.410       .  A
C635        F642   1.353       .  S
C636        C637   1.430       .  A
C637        C638   1.386       .  A
C637        F644   1.357       .  S
C638        C639   1.391       .  A
C638        F643   1.359       .  S
C639        C640   1.403       .  A
C640        F641   1.356       .  S
C645        C646   1.418       .  A
C645        C650   1.417       .  A
C645        F652   1.357       .  S
C646        C647   1.439       .  A
C647        C648   1.407       .  A
C647        F654   1.356       .  S
C648        C649   1.396       .  A
C648        F653   1.358   1_556  S
C649        C650   1.414       .  A
C650        F651   1.358       .  S
C655        C656   1.429       .  A
C655        C660   1.399       .  A
C655        F662   1.357       .  S
C656        C657   1.424       .  A
C657        C658   1.429       .  A
C657        F664   1.357       .  S
C658        C659   1.417       .  A
C658        F663   1.357       .  S
C659        C660   1.411       .  A
C660        F661   1.359       .  S
C665        C666   1.430       .  A
C665        C670   1.416       .  A
C665        F672   1.353       .  S
C666        C667   1.425       .  A
C667        C668   1.398       .  A
C667        F674   1.357       .  S
C668        C669   1.402       .  A
C668        F673   1.359       .  S
C669        C670   1.405       .  A
C670        F671   1.357       .  S
C675        C680   1.408   1_554  A
C675       C1500   1.444       .  A
C675        F682   1.352       .  S
C676        C677   1.421       .  A
C676       C1499   1.444   1_545  A
C677        C678   1.393   1_554  A
C677        F684   1.344       .  S
C678       C1503   1.401   1_545  A
C678        F683   1.360       .  S
C679        C680   1.394       .  A
C679       C1502   1.401       .  A
C680        F681   1.358       .  S
C685        C686   1.397       .  A
C685        C690   1.418   1_556  A
C685        F692   1.357       .  S
C686        C687   1.411   1_556  A
C687        C688   1.394       .  A
C687        F694   1.359   1_554  S
C688        C689   1.427       .  A
C688        F693   1.358       .  S
C689        C690   1.440       .  A
C690        F691   1.346       .  S
C695        C696   1.426       .  A
C695        C700   1.404       .  A
C695        F702   1.356       .  S
C696       C1521   1.423   1_545  A
C697        C698   1.428       .  A
C697       C1520   1.423       .  A
C697        F704   1.352       .  S
C698        C699   1.412       .  A
C698        F703   1.355       .  S
C699       C1524   1.405       .  A
C700       C1523   1.405   1_545  A
C700        F701   1.359       .  S
C705        C706   1.395       .  A
C705        C710   1.385       .  A
C705        F712   1.360       .  S
C706        C707   1.413       .  A
C707        C708   1.420       .  A
C707        F714   1.357       .  S
C708        C709   1.422       .  A
C708        F713   1.356       .  S
C709        C710   1.438       .  A
C710        F711   1.354       .  S
C715        C716   1.396       .  A
C715       C2368   1.405       .  A
C715        F722   1.354       .  S
C716        C717   1.390       .  A
C717       C2366   1.384       .  A
C717        F724   1.360   1_554  S
C718        C719   1.426       .  A
C718       C2365   1.384   1_455  A
C718        F723   1.346       .  S
C719        C720   1.429       .  A
C720       C2363   1.405       .  A
C720        F721   1.358       .  S
C725        C726   1.436       .  A
C725        C730   1.409       .  A
C725        F732   1.358       .  S
C726        C727   1.421       .  A
C727        C728   1.387       .  A
C727        F734   1.345       .  S
C728        C729   1.401       .  A
C728        F733   1.360   1_554  S
C729        C730   1.400       .  A
C730        F731   1.357       .  S
C735        C736   1.394       .  A
C735        C740   1.391       .  A
C735        F742   1.359       .  S
C736       C2385   1.404       .  A
C737        C738   1.413       .  A
C737       C2384   1.404   1_455  A
C737        F744   1.356       .  S
C738        C739   1.418       .  A
C738        F743   1.353       .  S
C739       C2388   1.429       .  A
C740       C2387   1.429       .  A
C740        F741   1.357       .  S
C745        C746   1.401       .  A
C745        C750   1.397       .  A
C745        F752   1.359       .  S
C746        C747   1.400       .  A
C747        C748   1.409       .  A
C747        F754   1.358       .  S
C748        C749   1.440       .  A
C748        F753   1.359       .  S
C749        C750   1.427       .  A
C750        F751   1.344       .  S
C755        C760   1.389       .  A
C755       C1580   1.386   1_545  A
C755        F762   1.360       .  S
C756       C1579   1.386       .  A
C756       C2405   1.393       .  A
C757        C758   1.403       .  A
C757       C2404   1.393       .  A
C757        F764   1.358       .  S
C758       C1583   1.436       .  A
C758        F763   1.356       .  S
C759       C1582   1.436   1_545  A
C759       C2408   1.434       .  A
C760       C2407   1.434       .  A
C760        F761   1.349       .  S
C765        C766   1.391       .  A
C765        C770   1.398       .  A
C765        F772   1.359       .  S
C766       C2415   1.411       .  A
C767        C768   1.415       .  A
C767       C2414   1.411   1_455  A
C767        F774   1.358       .  S
C768        C769   1.418       .  A
C768        F773   1.357       .  S
C769       C2418   1.438       .  A
C770       C2417   1.438       .  A
C770        F771   1.357       .  S
C775        C780   1.402       .  A
C775       C1600   1.406       .  A
C775        F782   1.359       .  S
C776        C777   1.412       .  A
C776       C1599   1.406       .  A
C777        C778   1.418       .  A
C777        F784   1.357       .  S
C778       C1603   1.427       .  A
C778        F783   1.354       .  S
C779        C780   1.433       .  A
C779       C1602   1.427       .  A
C780        F781   1.356       .  S
C785        C786   1.418       .  A
C785        C790   1.394       .  A
C785        F792   1.358       .  S
C786        C787   1.422       .  A
C787       C1612   1.411       .  A
C787       F1618   1.354       .  S
C788       C1611   1.411   1_545  A
C788       C1613   1.406   1_545  A
C788        F793   1.357       .  S
C789       C1141   1.473   1_556  S
C789        C790   1.407       .  A
C789       C1612   1.406       .  A
C790        F791   1.359   1_556  S
F794       C1611   1.354   1_545  S
C795        C796   1.424       .  A
C795       C1624   1.389       .  A
C795        F802   1.354       .  S
C796        C797   1.428       .  A
C797       C2446   1.399       .  A
C797       F2452   1.351       .  S
C798       C2445   1.399       .  A
C798       C3271   1.400       .  A
C798        F803   1.358   1_655  S
C799       C1847   1.488   1_565  S
C799        C800   1.408       .  A
C799       C3270   1.400       .  A
C800       C1619   1.389       .  A
C800        F801   1.359       .  S
F804       C2445   1.351       .  S
C805        C806   1.429       .  A
C805        C810   1.410       .  A
C805        F812   1.357       .  S
C806        C807   1.426       .  A
C807        C808   1.415       .  A
C807        F814   1.353       .  S
C808        C809   1.403       .  A
C808        F813   1.355       .  S
C809        C810   1.403       .  A
C810        F811   1.358       .  S
C815        C816   1.433       .  A
C815        C820   1.372       .  A
C815        F822   1.356       .  S
C816        C817   1.421       .  A
C817        C818   1.415       .  A
C817        F824   1.358       .  S
C818        C819   1.411       .  A
C818       F2471   1.357       .  S
C819       C1903   1.485       .  S
C819        C820   1.396       .  A
C820        F821   1.361   1_556  S
F823       C2466   1.357       .  S
C825       C1610   1.563       .  S
C825       C1620   1.573       .  S
C825       C1630   1.591       .  S
C825       C1640   1.580       .  S
O826       Zr838   2.328       .  S
O826        C828   1.266       .  A
O827       Zr864   2.432       .  S
O827        C828   1.294       .  A
O829       Zr841   2.417       .  S
O829        C831   1.286       .  A
O830       Zr865   2.396       .  S
O830        C831   1.279       .  A
O832       Zr841   2.471       .  S
O832        C834   1.294       .  A
O833       Zr864   2.458       .  S
O833        C834   1.293       .  A
C834       C1600   1.517   1_565  S
O835       Zr838   2.415       .  S
O835        C837   1.281       .  A
O836       Zr865   2.426       .  S
O836        C837   1.285       .  A
C837       C1580   1.459       .  S
Zr838       O844   2.389       .  S
Zr838       O845   2.330       .  S
Zr838       O868   2.324       .  S
Zr838       O870   2.374       .  S
Zr838      O2488   2.438       .  S
O839        H882   0.989       .  S
O840      Zr2486   2.438   1_455  S
O840        H881   0.990       .  S
O840        H885   0.990       .  S
Zr841       O845   2.375       .  S
Zr841       O844   2.353       .  S
Zr841       O869   2.348       .  S
Zr841       O871   2.383       .  S
Zr841       O843   2.434       .  S
O842        H883   0.990       .  S
O842        H886   0.990       .  S
O843        H876   0.990       .  S
O844       Zr864   2.393       .  S
O845       Zr865   2.384       .  S
O845        H872   0.966       .  S
O846       Zr858   2.365       .  S
O846        C848   1.271       .  A
O847       Zr865   2.393       .  S
O847        C848   1.284       .  A
C848       C2736   1.417       .  S
O849       Zr861   2.371       .  S
O849        C851   1.275       .  A
O850       Zr864   2.445       .  S
O850        C851   1.295       .  A
C851       C1270   1.446       .  S
O852       Zr861   2.433       .  S
O852        C854   1.286       .  A
O853       Zr865   2.448       .  S
O853        C854   1.289       .  A
C854       C1570   1.495       .  S
O855       Zr858   2.435       .  S
O855        C857   1.283       .  A
O856       Zr864   2.474       .  S
O856        C857   1.296       .  A
C857       C1590   1.488       .  S
Zr858       O866   2.388       .  S
Zr858       O867   2.350       .  S
Zr858       O870   2.345       .  S
Zr858       O868   2.376       .  S
Zr858       O859   2.421       .  S
Zr858      O2508   2.437       .  S
O859        H879   0.989       .  S
O859        H884   0.990       .  S
O860      Zr2506   2.437   1_455  S
O860        H880   0.991       .  S
Zr861       O867   2.394       .  S
Zr861       O866   2.352       .  S
Zr861       O871   2.351       .  S
Zr861       O869   2.373       .  S
Zr861       O862   2.436       .  S
Zr861       O863   2.436       .  S
O862        H878   0.990       .  S
O863        H877   0.990       .  S
O863        H887   0.990       .  S
Zr864       O867   2.388       .  S
Zr864       O869   2.384       .  S
Zr864       O870   2.381       .  S
Zr865       O866   2.386       .  S
Zr865       O868   2.368       .  S
Zr865       O871   2.379       .  S
O866        H874   0.966       .  S
O869        H873   0.965       .  S
O870        H875   0.964       .  S
O888       Zr900   2.334       .  S
O888        C890   1.267       .  A
O889       Zr926   2.391       .  S
O889        C890   1.283       .  A
C890       C2756   1.409       .  S
O891       Zr903   2.355       .  S
O891        C893   1.272       .  A
O892       Zr927   2.405       .  S
O892        C893   1.286       .  A
C893       C1267   1.425       .  S
O894       Zr903   2.407       .  S
O894        C896   1.282       .  A
O895       Zr926   2.450       .  S
O895        C896   1.288       .  A
C896       C1553   1.484   1_556  S
O897       Zr900   2.414       .  S
O897        C899   1.281       .  A
O898       Zr927   2.451       .  S
O898        C899   1.290       .  A
C899       C1560   1.475       .  S
Zr900       O906   2.381       .  S
Zr900       O907   2.339       .  S
Zr900       O930   2.331       .  S
Zr900       O932   2.383       .  S
Zr900       O901   2.435       .  S
Zr900      O2550   2.439       .  S
O901        H944   0.990       .  S
O902      Zr2548   2.439   1_455  S
O902        H943   0.990       .  S
O902        H947   0.990       .  S
Zr903       O907   2.386       .  S
Zr903       O906   2.344       .  S
Zr903       O931   2.345       .  S
Zr903       O933   2.369       .  S
Zr903       O904   2.426       .  S
Zr903       O905   2.434       .  S
O904        H945   0.988       .  S
O904        H948   0.990       .  S
O905        H938   0.990       .  S
O906       Zr926   2.379       .  S
O907       Zr927   2.384       .  S
O907        H934   0.966       .  S
O908       Zr920   2.348       .  S
O908        C910   1.271       .  A
O909       Zr927   2.407       .  S
O909        C910   1.285       .  A
C910       C2665   1.421       .  S
O911       Zr923   2.426       .  S
O911        C913   1.288       .  A
O912       Zr926   2.388       .  S
O912        C913   1.279       .  A
C913       C1147   1.440   1_556  S
O914       Zr923   2.460       .  S
O914        C916   1.293       .  A
O915       Zr927   2.425       .  S
O915        C916   1.285       .  A
C916       C1530   1.498       .  S
O917       Zr920   2.417       .  S
O917        C919   1.283       .  A
O918       Zr926   2.417       .  S
O918        C919   1.283       .  A
C919       C1540   1.465   1_556  S
Zr920       O928   2.371       .  S
Zr920       O929   2.331       .  S
Zr920       O932   2.339       .  S
Zr920       O930   2.372       .  S
Zr920       O921   2.434       .  S
Zr920      O2570   2.435       .  S
O921        H941   0.990       .  S
O921        H946   0.990       .  S
O922      Zr2568   2.435   1_455  S
O922        H942   0.990       .  S
Zr923       O929   2.373       .  S
Zr923       O928   2.358       .  S
Zr923       O933   2.344       .  S
Zr923       O931   2.374       .  S
Zr923       O924   2.433       .  S
Zr923       O925   2.432       .  S
O924        H940   0.990       .  S
O925        H939   0.990       .  S
O925        H949   0.990       .  S
Zr926       O929   2.383       .  S
Zr926       O931   2.382       .  S
Zr926       O932   2.380       .  S
Zr927       O928   2.393       .  S
Zr927       O930   2.360       .  S
Zr927       O933   2.379       .  S
O928        H936   0.966       .  S
O931        H935   0.966       .  S
O932        H937   0.965       .  S
O950       Zr962   2.339       .  S
O950        C952   1.263       .  A
O951       Zr988   2.523       .  S
O951        C952   1.313       .  A
O953       Zr965   2.346       .  S
O953        C955   1.269       .  A
O954       Zr989   2.438       .  S
O954        C955   1.288       .  A
C955       C1085   1.428       .  S
O956       Zr965   2.380       .  S
O956        C958   1.275       .  A
O957       Zr988   2.512       .  S
O957        C958   1.303       .  A
C958       C1510   1.507       .  S
O959       Zr962   2.374       .  S
O959        C961   1.273       .  A
O960       Zr989   2.479       .  S
O960        C961   1.295       .  A
C961       C1503   1.483       .  S
Zr962       O968   2.357       .  S
Zr962       O969   2.349       .  S
Zr962       O992   2.343       .  S
Zr962       O994   2.375       .  S
Zr962       O963   2.438       .  S
O963       H1006   0.991   1_556  S
O964       H1005   0.989       .  S
O964       H1009   0.990       .  S
Zr965       O969   2.370       .  S
Zr965       O968   2.330       .  S
Zr965       O993   2.337       .  S
Zr965       O995   2.359       .  S
Zr965       O966   2.432       .  S
Zr965       O967   2.434       .  S
O966       H1007   0.990   1_556  S
O966       H1010   0.990   1_556  S
O967       H1000   0.990       .  S
O968       Zr988   2.362       .  S
O969       Zr989   2.387       .  S
O969        H996   0.965       .  S
O970       Zr982   2.382       .  S
O970        C972   1.275       .  A
O971       Zr989   2.407       .  S
O971        C972   1.283       .  A
O973       Zr985   2.369       .  S
O973        C975   1.274       .  A
O974       Zr988   2.455       .  S
O974        C975   1.293       .  A
C975       C1290   1.442       .  S
O976       Zr985   2.418       .  S
O976        C978   1.283       .  A
O977       Zr989   2.492       .  S
O977        C978   1.299       .  A
C978       C1493   1.494       .  S
O979       Zr982   2.395       .  S
O979        C981   1.277       .  A
O980       Zr988   2.539       .  S
O980        C981   1.311       .  A
C981       C1523   1.505       .  S
Zr982       O990   2.368       .  S
Zr982       O991   2.337       .  S
Zr982       O994   2.368       .  S
Zr982       O992   2.369       .  S
Zr982       O983   2.436       .  S
O983       H1003   0.990       .  S
O983       H1008   0.990   1_565  S
O984       H1004   0.987       .  S
Zr985       O991   2.359       .  S
Zr985       O990   2.350       .  S
Zr985       O995   2.348       .  S
Zr985       O993   2.369       .  S
Zr985       O986   2.433       .  S
Zr985       O987   2.435       .  S
O986       H1002   0.990       .  S
O987       H1001   0.990       .  S
O987       H1011   0.990       .  S
Zr988       O991   2.388       .  S
Zr988       O993   2.412       .  S
Zr988       O994   2.411       .  S
Zr989       O990   2.397       .  S
Zr989       O992   2.408       .  S
Zr989       O995   2.398       .  S
O990        H998   0.965       .  S
O993        H997   0.966       .  S
O994        H999   0.966   1_565  S
C1012      C1453   1.579       .  S
C1012      C1460   1.569       .  S
C1012      C1470   1.595       .  S
C1012      C1480   1.599       .  S
C1013      C1413   1.585       .  S
C1013      C1420   1.601       .  S
C1013      C1433   1.580       .  S
C1013      C1443   1.605       .  S
C1014      C1370   1.589       .  S
C1014      C1383   1.587       .  S
C1014      C1393   1.576       .  S
C1014      C1400   1.601       .  S
O1015     Zr2675   2.359       .  S
O1015      C2665   1.271       .  A
O1016     Zr1053   2.394       .  S
O1016      C1017   1.285   1_455  A
C1017      O2663   1.271       .  A
C1017      C2558   1.421       .  S
O1018     Zr2678   2.325       .  S
O1018      C1020   1.266       .  A
O1019     Zr1054   2.433       .  S
O1019      C2668   1.293   1_455  A
C1020      O2667   1.293       .  A
O1021     Zr2678   2.399       .  S
O1021      C2671   1.279       .  A
O1022     Zr1053   2.435       .  S
O1022      C1023   1.287   1_455  A
C1023      O2669   1.279       .  A
C1023      C3271   1.488       .  S
O1024     Zr2675   2.412       .  S
O1024      C2674   1.281       .  A
O1025     Zr1054   2.490       .  S
O1025      C1026   1.298       .  A
C1026      O2672   1.281   1_455  A
C1026      C3038   1.493   1_455  S
Zr1027     O2663   2.359   1_455  S
Zr1027     O2672   2.412   1_455  S
Zr1027     O1033   2.377       .  S
Zr1027     O1034   2.338       .  S
Zr1027     O1057   2.341       .  S
Zr1027     O1059   2.383       .  S
Zr1027     O2676   2.434   1_455  S
Zr1027     O1029   2.422       .  S
O1028     Zr2675   2.434       .  S
O1028      H1071   0.990       .  S
O1029      H1070   0.987       .  S
O1029      H2722   0.990       .  S
Zr1030     O2666   2.325   1_455  S
Zr1030     O2669   2.399   1_455  S
Zr1030     O1034   2.372       .  S
Zr1030     O1033   2.335       .  S
Zr1030     O1058   2.330       .  S
Zr1030     O1060   2.380       .  S
Zr1030     O2679   2.438   1_455  S
O1031     Zr2678   2.438       .  S
O1031      H1072   0.990       .  S
O1031      H1075   0.990       .  S
O1032      H1065   0.990       .  S
O1033     Zr1053   2.367       .  S
O1034     Zr1054   2.376       .  S
O1034      H2709   0.965   1_455  S
O1035     Zr1047   2.375       .  S
O1035      C1037   1.275       .  A
O1036     Zr1054   2.426       .  S
O1036      C1037   1.292       .  A
C1037      C1211   1.438       .  S
O1038     Zr1050   2.416       .  S
O1038      C1040   1.286       .  A
O1039     Zr1053   2.382       .  S
O1039      C1040   1.277       .  A
O1041     Zr1050   2.461       .  S
O1041      C1043   1.292       .  A
O1042     Zr1054   2.461       .  S
O1042      C1043   1.294       .  A
O1044     Zr1047   2.432       .  S
O1044      C1046   1.286       .  A
O1045     Zr1053   2.443       .  S
O1045      C1046   1.288       .  A
C1046      C1450   1.481       .  S
Zr1047     O1055   2.375       .  S
Zr1047     O1056   2.349       .  S
Zr1047     O1059   2.353       .  S
Zr1047     O1057   2.388       .  S
Zr1047     O1048   2.437       .  S
Zr1047     O1049   2.437       .  S
O1048      H1068   0.990       .  S
O1048      H1073   0.990       .  S
O1049      H1069   0.990       .  S
Zr1050     O1056   2.380       .  S
Zr1050     O1055   2.349       .  S
Zr1050     O1060   2.354       .  S
Zr1050     O1058   2.369       .  S
Zr1050     O1051   2.432       .  S
O1051      H1067   0.990       .  S
O1052      H1066   0.990       .  S
O1052      H1076   0.990       .  S
Zr1053     O1056   2.380       .  S
Zr1053     O1058   2.383       .  S
Zr1053     O1059   2.384       .  S
Zr1054     O1055   2.390       .  S
Zr1054     O1057   2.384       .  S
Zr1054     O1060   2.388       .  S
O1055      H1063   0.965       .  S
O1059      H1064   0.966       .  S
H1061      O2682   0.965       .  S
H1074      O2677   0.990       .  S
O1077     Zr2737   2.426       .  S
O1077      C2727   1.284   1_554  A
O1078     Zr1115   2.412   1_556  S
O1078      C1079   1.279       .  A
C1079      O2725   1.284   1_556  A
C1079      C3291   1.485   1_455  S
O1080     Zr1092   2.478       .  S
O1080      C1082   1.294       .  A
O1081     Zr1116   2.416       .  S
O1081      C1082   1.286       .  A
C1082      C1410   1.488       .  S
O1083     Zr1092   2.436       .  S
O1083      C1085   1.291   1_554  A
O1084     Zr1115   2.372   1_556  S
O1084      C1085   1.273       .  A
O1086     Zr2737   2.344       .  S
O1086      C2736   1.270       .  A
O1087     Zr1116   2.404       .  S
O1087      C1088   1.285       .  A
C1088      O2734   1.270   1_455  A
C1088      C2496   1.417   1_455  S
Zr1089     O2725   2.426       .  S
Zr1089     O2734   2.344   1_455  S
Zr1089     O1095   2.321       .  S
Zr1089     O1096   2.378       .  S
Zr1089     O1119   2.368       .  S
Zr1089     O1121   2.336       .  S
Zr1089     O1090   2.426       .  S
Zr1089     O2739   2.438   1_455  S
O1090      H1133   0.989       .  S
O1091     Zr2737   2.438       .  S
O1091      H1132   0.990       .  S
O1091      H1136   0.990       .  S
Zr1092     O1096   2.359       .  S
Zr1092     O1095   2.369       .  S
Zr1092     O1120   2.380       .  S
Zr1092     O1122   2.347       .  S
Zr1092     O1093   2.436       .  S
Zr1092     O1094   2.430       .  S
O1093      H1134   0.990       .  S
O1093      H1137   0.990       .  S
O1094      H1127   0.990       .  S
O1095     Zr1115   2.382       .  S
O1096     Zr1116   2.395       .  S
O1096      H1123   0.966       .  S
O1097     Zr2757   2.416       .  S
O1097      C2747   1.281       .  A
O1098     Zr1116   2.469       .  S
O1098      C1099   1.294       .  A
C1099      O2745   1.281   1_455  A
C1099      C3028   1.487   1_455  S
O1100     Zr1112   2.418       .  S
O1100      C1102   1.283   1_554  A
O1101     Zr1115   2.436   1_556  S
O1101      C1102   1.285       .  A
C1102      C1463   1.468       .  S
O1103     Zr1112   2.373       .  S
O1103      C1105   1.275       .  A
O1104     Zr1116   2.405       .  S
O1104      C1105   1.286       .  A
C1105      C1214   1.431       .  S
O1106     Zr2757   2.332       .  S
O1106      C2756   1.267   1_554  A
O1107     Zr1115   2.391   1_556  S
O1107      C1108   1.284   1_455  A
C1108      O2754   1.267   1_556  A
C1108      C2538   1.409       .  S
Zr1109     O2745   2.416   1_455  S
Zr1109     O2754   2.332   1_455  S
Zr1109     O1117   2.345       .  S
Zr1109     O1118   2.390       .  S
Zr1109     O1121   2.387       .  S
Zr1109     O1119   2.322       .  S
Zr1109     O1110   2.435       .  S
Zr1109     O2759   2.434   1_455  S
O1110      H1130   0.989       .  S
O1110      H2783   0.990   1_455  S
O1111     Zr2757   2.434       .  S
O1111      H1131   0.990       .  S
Zr1112     O1118   2.351       .  S
Zr1112     O1117   2.381       .  S
Zr1112     O1122   2.371       .  S
Zr1112     O1120   2.352       .  S
Zr1112     O1113   2.428       .  S
Zr1112     O1114   2.439       .  S
O1113      H1129   0.990       .  S
O1114      H1128   0.990       .  S
O1114      H1138   0.990       .  S
Zr1115     O1118   2.376       .  S
Zr1115     O1120   2.387       .  S
Zr1115     O1121   2.379       .  S
Zr1116     O1117   2.373       .  S
Zr1116     O1119   2.357       .  S
Zr1116     O1122   2.376       .  S
O1117      H1125   0.965       .  S
O1120      H1124   0.966       .  S
O1121      H2774   0.966   1_455  S
H1126      O2769   0.966       .  S
H1135      O2758   0.990       .  S
O1140     Zr1177   2.499       .  S
O1140      C1141   1.299       .  A
O1142     Zr1154   2.435   1_556  S
O1142      C1144   1.284   1_556  A
O1143     Zr1178   2.512       .  S
O1143      C1144   1.306       .  A
C1144      C1473   1.502   1_554  S
O1145     Zr1154   2.417       .  S
O1145      C1147   1.276       .  A
O1146     Zr1177   2.408       .  S
O1146      C1147   1.279       .  A
O1149     Zr1178   2.529       .  S
O1149      C1150   1.313       .  A
Zr1151     O1157   2.332       .  S
Zr1151     O1158   2.366       .  S
Zr1151     O1181   2.360       .  S
Zr1151     O1183   2.343       .  S
Zr1151     O1152   2.435   1_554  S
O1152      H1195   0.991       .  S
O1153      H1194   0.988       .  S
O1153      H1198   0.990       .  S
Zr1154     O1158   2.362       .  S
Zr1154     O1157   2.359       .  S
Zr1154     O1182   2.376       .  S
Zr1154     O1184   2.370       .  S
Zr1154     O1155   2.437   1_554  S
Zr1154     O1156   2.437       .  S
O1155      H1196   0.990       .  S
O1155      H1199   0.990       .  S
O1156      H1189   0.990       .  S
O1157     Zr1177   2.385       .  S
O1158     Zr1178   2.395       .  S
O1158      H1185   0.963       .  S
O1160     Zr1178   2.561       .  S
O1160      C1161   1.312       .  A
O1162     Zr1174   2.410       .  S
O1162      C1164   1.281       .  A
O1163     Zr1177   2.508       .  S
O1163      C1164   1.301       .  A
C1164      C1373   1.521       .  S
O1165     Zr1174   2.383       .  S
O1165      C1167   1.276       .  A
O1166     Zr1178   2.488       .  S
O1166      C1167   1.300       .  A
C1167      C1231   1.461       .  S
O1169     Zr1177   2.424       .  S
O1169      C1170   1.286       .  A
Zr1171     O1179   2.339       .  S
Zr1171     O1180   2.360       .  S
Zr1171     O1183   2.360       .  S
Zr1171     O1181   2.367       .  S
Zr1171     O1172   2.438       .  S
O1172      H1192   0.990       .  S
O1173      H1193   0.990       .  S
Zr1174     O1180   2.351       .  S
Zr1174     O1179   2.360       .  S
Zr1174     O1184   2.371       .  S
Zr1174     O1182   2.346       .  S
Zr1174     O1175   2.434       .  S
Zr1174     O1176   2.426       .  S
O1175      H1191   0.991       .  S
O1176      H1190   0.989       .  S
O1176      H1200   0.990       .  S
Zr1177     O1180   2.383       .  S
Zr1177     O1182   2.419       .  S
Zr1177     O1183   2.404       .  S
Zr1178     O1179   2.399       .  S
Zr1178     O1181   2.406       .  S
Zr1178     O1184   2.424       .  S
O1179      H1187   0.964       .  S
O1182      H1186   0.966       .  S
C1201      C1363   1.609       .  S
C1201      C1513   1.607       .  S
C1201      C1550   1.589       .  S
C1201      C1573   1.603       .  S
C1202      C1350   1.604       .  S
C1202      C1490   1.584       .  S
C1202      C1563   1.572       .  S
C1202      C1593   1.588       .  S
O1203     Zr1215   2.449       .  S
O1203      C1205   1.287       .  A
O1204     Zr1241   2.514       .  S
O1204      C1205   1.304       .  A
C1205      C1353   1.520       .  S
O1206     Zr1218   2.452       .  S
O1206      C1208   1.288       .  A
O1207     Zr1242   2.458       .  S
O1207      C1208   1.292       .  A
C1208      C1333   1.500       .  S
O1209     Zr1218   2.366       .  S
O1209      C1211   1.274       .  A
O1210     Zr1241   2.430       .  S
O1210      C1211   1.292       .  A
O1212     Zr1215   2.372       .  S
O1212      C1214   1.275       .  A
O1213     Zr1242   2.408       .  S
O1213      C1214   1.287       .  A
Zr1215     O1221   2.340       .  S
Zr1215     O1222   2.392       .  S
Zr1215     O1245   2.386       .  S
Zr1215     O1247   2.356       .  S
Zr1215     O1216   2.434       .  S
Zr1215     O1217   2.438       .  S
O1216      H1259   0.990       .  S
O1217      H1258   0.990       .  S
O1217      H1262   0.990       .  S
Zr1218     O1222   2.345       .  S
Zr1218     O1221   2.384       .  S
Zr1218     O1246   2.389       .  S
Zr1218     O1248   2.339       .  S
Zr1218     O1219   2.438       .  S
Zr1218     O1220   2.431       .  S
O1219      H1260   0.990       .  S
O1219      H1263   0.990       .  S
O1220      H1253   0.990       .  S
O1221     Zr1241   2.378       .  S
O1222     Zr1242   2.384       .  S
O1222      H1249   0.966       .  S
O1223     Zr1235   2.444       .  S
O1223      C1225   1.286       .  A
O1224     Zr1242   2.469       .  S
O1224      C1225   1.294       .  A
C1225      C1360   1.492       .  S
O1226     Zr1238   2.514       .  S
O1226      C1228   1.303       .  A
O1227     Zr1241   2.474       .  S
O1227      C1228   1.297       .  A
C1228      C1340   1.528       .  S
O1229     Zr1238   2.467       .  S
O1229      C1231   1.296       .  A
O1230     Zr1242   2.414       .  S
O1230      C1231   1.283       .  A
O1232     Zr1235   2.391       .  S
O1232      C1234   1.278       .  A
O1233     Zr1241   2.450       .  S
O1233      C1234   1.295       .  A
C1234      C1287   1.458       .  S
Zr1235     O1243   2.361       .  S
Zr1235     O1244   2.380       .  S
Zr1235     O1247   2.393       .  S
Zr1235     O1245   2.355       .  S
Zr1235     O1236   2.437       .  S
Zr1235     O1237   2.431       .  S
O1236      H1256   0.990       .  S
O1236      H1261   0.990       .  S
O1237      H1257   0.990       .  S
Zr1238     O1244   2.363       .  S
Zr1238     O1243   2.393       .  S
Zr1238     O1248   2.379       .  S
Zr1238     O1246   2.364       .  S
Zr1238     O1239   2.434       .  S
Zr1238     O1240   2.436       .  S
O1239      H1255   0.990       .  S
O1240      H1254   0.990       .  S
O1240      H1264   0.990       .  S
Zr1241     O1244   2.387       .  S
Zr1241     O1246   2.409       .  S
Zr1241     O1247   2.386       .  S
Zr1242     O1243   2.394       .  S
Zr1242     O1245   2.384       .  S
Zr1242     O1248   2.386       .  S
O1243      H1251   0.966       .  S
O1246      H1250   0.966       .  S
O1247      H1252   0.966       .  S
O1265     Zr1277   2.361       .  S
O1265      C1267   1.273       .  A
O1266     Zr1303   2.402       .  S
O1266      C1267   1.286       .  A
O1268     Zr1280   2.374       .  S
O1268      C1270   1.275       .  A
O1269     Zr1304   2.445       .  S
O1269      C1270   1.295       .  A
O1271     Zr1280   2.469       .  S
O1271      C1273   1.292       .  A
O1272     Zr1303   2.462       .  S
O1272      C1273   1.292       .  A
C1273      C1633   1.501       .  S
O1274     Zr1277   2.452       .  S
O1274      C1276   1.288       .  A
O1275     Zr1304   2.506       .  S
O1275      C1276   1.302       .  A
C1276      C1403   1.515       .  S
Zr1277     O1283   2.394       .  S
Zr1277     O1284   2.342       .  S
Zr1277     O1307   2.343       .  S
Zr1277     O1309   2.386       .  S
Zr1277     O1278   2.434       .  S
Zr1277     O1279   2.434       .  S
O1278      H1321   0.990       .  S
O1279      H1320   0.990       .  S
O1279      H1324   0.990       .  S
Zr1280     O1284   2.390       .  S
Zr1280     O1283   2.345       .  S
Zr1280     O1308   2.336       .  S
Zr1280     O1310   2.395       .  S
Zr1280     O1281   2.436       .  S
Zr1280     O1282   2.435       .  S
O1281      H1322   0.990       .  S
O1281      H1325   0.990       .  S
O1282      H1315   0.990       .  S
O1283     Zr1303   2.383       .  S
O1284     Zr1304   2.386       .  S
O1284      H1311   0.965       .  S
O1285     Zr1297   2.392       .  S
O1285      C1287   1.279       .  A
O1286     Zr1304   2.456       .  S
O1286      C1287   1.297       .  A
O1288     Zr1300   2.440       .  S
O1288      C1290   1.291       .  A
O1289     Zr1303   2.405       .  S
O1289      C1290   1.281       .  A
O1291     Zr1300   2.490       .  S
O1291      C1293   1.297       .  A
O1292     Zr1304   2.483       .  S
O1292      C1293   1.298       .  A
C1293      C1440   1.520       .  S
O1294     Zr1297   2.447       .  S
O1294      C1296   1.289       .  A
O1295     Zr1303   2.496       .  S
O1295      C1296   1.298       .  A
C1296      C1483   1.528       .  S
Zr1297     O1305   2.378       .  S
Zr1297     O1306   2.353       .  S
Zr1297     O1309   2.353       .  S
Zr1297     O1307   2.396       .  S
Zr1297     O1298   2.437       .  S
Zr1297     O1299   2.433       .  S
O1298      H1318   0.990       .  S
O1298      H1323   0.990       .  S
O1299      H1319   0.990       .  S
Zr1300     O1306   2.387       .  S
Zr1300     O1305   2.349       .  S
Zr1300     O1310   2.361       .  S
Zr1300     O1308   2.383       .  S
Zr1300     O1301   2.433       .  S
Zr1300     O1302   2.423       .  S
O1301      H1317   0.990       .  S
O1302      H1316   0.990       .  S
O1302      H1326   0.990       .  S
Zr1303     O1306   2.391       .  S
Zr1303     O1308   2.395       .  S
Zr1303     O1309   2.392       .  S
Zr1304     O1305   2.394       .  S
Zr1304     O1307   2.388       .  S
Zr1304     O1310   2.400       .  S
O1305      H1313   0.965       .  S
O1308      H1312   0.965       .  S
O1309      H1314   0.966       .  S
C1327      C1343   1.602       .  S
C1327      C1520   1.589       .  S
C1327      C1533   1.590       .  S
C1327      C1603   1.597       .  S
C1328      C1330   1.621       .  S
C1328      C1500   1.596       .  S
C1328      C1543   1.586       .  S
C1328      C1583   1.590       .  S
C1329      C1330   1.442       .  A
C1329      C1334   1.414       .  A
C1329      F1336   1.355       .  S
C1330      C1331   1.431       .  A
C1331      C1332   1.405       .  A
C1331      F1338   1.340       .  S
C1332      C1333   1.396       .  A
C1332      F1337   1.359       .  S
C1333      C1334   1.397       .  A
C1334      F1335   1.355       .  S
C1339      C1340   1.414       .  A
C1339      C1344   1.426       .  A
C1339      F1346   1.355       .  S
C1340      C1341   1.407       .  A
C1341      C1342   1.417       .  A
C1341      F1348   1.358       .  S
C1342      C1343   1.429       .  A
C1342      F1347   1.358       .  S
C1343      C1344   1.426       .  A
C1344      F1345   1.354       .  S
C1349      C1350   1.423       .  A
C1349      C1354   1.419       .  A
C1349      F1356   1.356       .  S
C1350      C1351   1.436       .  A
C1351      C1352   1.419       .  A
C1351      F1358   1.355       .  S
C1352      C1353   1.404       .  A
C1352      F1357   1.358       .  S
C1353      C1354   1.413       .  A
C1354      F1355   1.358       .  S
C1359      C1360   1.400       .  A
C1359      C1364   1.413       .  A
C1359      F1366   1.357       .  S
C1360      C1361   1.393       .  A
C1361      C1362   1.406       .  A
C1361      F1368   1.356       .  S
C1362      C1363   1.435       .  A
C1362      F1367   1.350       .  S
C1363      C1364   1.436       .  A
C1364      F1365   1.359       .  S
C1369      C1370   1.422       .  A
C1369      C1374   1.396       .  A
C1369      F1376   1.356       .  S
C1370      C1371   1.431       .  A
C1371      C1372   1.422       .  A
C1371      F1378   1.357       .  S
C1372      C1373   1.409       .  A
C1372      F1377   1.357       .  S
C1373      C1374   1.416       .  A
C1374      F1375   1.359       .  S
C1379      C1380   1.406       .  A
C1379      C1384   1.407       .  A
C1379      F1386   1.358       .  S
C1380      C2747   1.487       .  S
C1380      C3029   1.395       .  A
C1381      C3028   1.395       .  A
C1381      C3030   1.403       .  A
C1381      F1388   1.359   1_655  S
C1382      C3029   1.403       .  A
C1382      C1383   1.438       .  A
C1382      F1387   1.355       .  S
C1383      C1384   1.421       .  A
C1384      F1385   1.356       .  S
C1389      C1390   1.406       .  A
C1389      C1394   1.416       .  A
C1389      F3044   1.357       .  S
C1390      C2674   1.493       .  S
C1390      C1391   1.404       .  A
C1391      C1392   1.399       .  A
C1391      F1398   1.359       .  S
C1392      C1393   1.422       .  A
C1392      F1397   1.357       .  S
C1393      C1394   1.426       .  A
C1394      F1395   1.355       .  S
F1396      C3037   1.357       .  S
C1399      C1400   1.426       .  A
C1399      C1404   1.419       .  A
C1399      F1406   1.348       .  S
C1400      C1401   1.426       .  A
C1401      C1402   1.416       .  A
C1401      F1408   1.357       .  S
C1402      C1403   1.409       .  A
C1402      F1407   1.358       .  S
C1403      C1404   1.407       .  A
C1404      F1405   1.357       .  S
C1409      C1410   1.396       .  A
C1409      C1414   1.397       .  A
C1409      F1416   1.359       .  S
C1410      C1411   1.403       .  A
C1411      C1412   1.410       .  A
C1411      F1418   1.357       .  S
C1412      C1413   1.427       .  A
C1412      F1417   1.357       .  S
C1413      C1414   1.435       .  A
C1414      F1415   1.354       .  S
C1419      C1420   1.438       .  A
C1419      C1424   1.430       .  A
C1419      F1426   1.357       .  S
C1420      C1421   1.418       .  A
C1421      C1422   1.397       .  A
C1421      F1428   1.354       .  S
C1422      C1423   1.425       .  A
C1422      F1427   1.358       .  S
C1423      C1424   1.410       .  A
C1424      F1425   1.357   1_565  S
C1429      F1436   1.356       .  S
C1430      C1431   1.401       .  A
C1431      C1432   1.403       .  A
C1431      F1438   1.358       .  S
C1432      C1433   1.429       .  A
C1432      F1437   1.358       .  S
C1433      C1434   1.422       .  A
C1439      C1440   1.406       .  A
C1439      C1444   1.415       .  A
C1439      F1446   1.358       .  S
C1440      C1441   1.409       .  A
C1441      C1442   1.422       .  A
C1441      F1448   1.356       .  S
C1442      C1443   1.429       .  A
C1442      F1447   1.354       .  S
C1443      C1444   1.430       .  A
C1444      F1445   1.358       .  S
C1449      C1450   1.395       .  A
C1449      C1454   1.392       .  A
C1449      F1456   1.359       .  S
C1450      C1451   1.404       .  A
C1451      C1452   1.413       .  A
C1451      F1458   1.357       .  S
C1452      C1453   1.423       .  A
C1452      F1457   1.351       .  S
C1453      C1454   1.429       .  A
C1454      F1455   1.357       .  S
C1459      C1460   1.423       .  A
C1459      C1464   1.410       .  A
C1459      F1466   1.353       .  S
C1460      C1461   1.430       .  A
C1461      C1462   1.386       .  A
C1461      F1468   1.357       .  S
C1462      C1463   1.391       .  A
C1462      F1467   1.359       .  S
C1463      C1464   1.403       .  A
C1464      F1465   1.356       .  S
C1469      C1470   1.418       .  A
C1469      C1474   1.417       .  A
C1469      F1476   1.357       .  S
C1470      C1471   1.439       .  A
C1471      C1472   1.407       .  A
C1471      F1478   1.356       .  S
C1472      C1473   1.396       .  A
C1472      F1477   1.358   1_556  S
C1473      C1474   1.414       .  A
C1474      F1475   1.358       .  S
C1479      C1480   1.429       .  A
C1479      C1484   1.399       .  A
C1479      F1486   1.357       .  S
C1480      C1481   1.424       .  A
C1481      C1482   1.429       .  A
C1481      F1488   1.357       .  S
C1482      C1483   1.417       .  A
C1482      F1487   1.357       .  S
C1483      C1484   1.411       .  A
C1484      F1485   1.359       .  S
C1489      C1490   1.430       .  A
C1489      C1494   1.416       .  A
C1489      F1496   1.353       .  S
C1490      C1491   1.425       .  A
C1491      C1492   1.398       .  A
C1491      F1498   1.357       .  S
C1492      C1493   1.402       .  A
C1492      F1497   1.359       .  S
C1493      C1494   1.405       .  A
C1494      F1495   1.357       .  S
C1499      C1504   1.408   1_554  A
C1499      F1506   1.352       .  S
C1500      C1501   1.421       .  A
C1501      C1502   1.393   1_554  A
C1501      F1508   1.344       .  S
C1502      F1507   1.360       .  S
C1503      C1504   1.394       .  A
C1504      F1505   1.358       .  S
C1509      C1510   1.397       .  A
C1509      C1514   1.418   1_556  A
C1509      F1516   1.357       .  S
C1510      C1511   1.411   1_556  A
C1511      C1512   1.394       .  A
C1511      F1518   1.359   1_554  S
C1512      C1513   1.427       .  A
C1512      F1517   1.358       .  S
C1513      C1514   1.440       .  A
C1514      F1515   1.346       .  S
C1519      C1520   1.426       .  A
C1519      C1524   1.404       .  A
C1519      F1526   1.356       .  S
C1521      C1522   1.428       .  A
C1521      F1528   1.352       .  S
C1522      C1523   1.412       .  A
C1522      F1527   1.355       .  S
C1524      F1525   1.359       .  S
C1529      C1530   1.395       .  A
C1529      C1534   1.385       .  A
C1529      F1536   1.360       .  S
C1530      C1531   1.413       .  A
C1531      C1532   1.420       .  A
C1531      F1538   1.357       .  S
C1532      C1533   1.422       .  A
C1532      F1537   1.356       .  S
C1533      C1534   1.438       .  A
C1534      F1535   1.354       .  S
C1539      C1540   1.396       .  A
C1539      C3192   1.405       .  A
C1539      F1546   1.354       .  S
C1540      C1541   1.390       .  A
C1541      C3190   1.384       .  A
C1541      F1548   1.360   1_554  S
C1542      C3189   1.384   1_455  A
C1542      C1543   1.426       .  A
C1542      F1547   1.346       .  S
C1543      C1544   1.429       .  A
C1544      C3187   1.405       .  A
C1544      F1545   1.358       .  S
C1549      C1550   1.436       .  A
C1549      C1554   1.409       .  A
C1549      F1556   1.358       .  S
C1550      C1551   1.421       .  A
C1551      C1552   1.387       .  A
C1551      F1558   1.345       .  S
C1552      C1553   1.401       .  A
C1552      F1557   1.360   1_554  S
C1553      C1554   1.400       .  A
C1554      F1555   1.357       .  S
C1559      C1560   1.394       .  A
C1559      C1564   1.391       .  A
C1559      F1566   1.359       .  S
C1560      C3209   1.404       .  A
C1561      C3208   1.404   1_455  A
C1561      C1562   1.413       .  A
C1561      F1568   1.356       .  S
C1562      C1563   1.418       .  A
C1562      F1567   1.353       .  S
C1563      C3212   1.429       .  A
C1564      C3211   1.429       .  A
C1564      F1565   1.357       .  S
C1569      C1570   1.401       .  A
C1569      C1574   1.397       .  A
C1569      F1576   1.359       .  S
C1570      C1571   1.400       .  A
C1571      C1572   1.409       .  A
C1571      F1578   1.358       .  S
C1572      C1573   1.440       .  A
C1572      F1577   1.359       .  S
C1573      C1574   1.427       .  A
C1574      F1575   1.344       .  S
C1579      C1584   1.389       .  A
C1579      F1586   1.360       .  S
C1580      C3229   1.393       .  A
C1581      C3228   1.393       .  A
C1581      C1582   1.403       .  A
C1581      F1588   1.358       .  S
C1582      F1587   1.356       .  S
C1583      C3232   1.434       .  A
C1584      C3231   1.434       .  A
C1584      F1585   1.349       .  S
C1589      C1590   1.391       .  A
C1589      C1594   1.398       .  A
C1589      F1596   1.359       .  S
C1590      C3239   1.411       .  A
C1591      C3238   1.411   1_455  A
C1591      C1592   1.415       .  A
C1591      F1598   1.358       .  S
C1592      C1593   1.418       .  A
C1592      F1597   1.357       .  S
C1593      C3242   1.438       .  A
C1594      C3241   1.438       .  A
C1594      F1595   1.357       .  S
C1599      C1604   1.402       .  A
C1599      F1606   1.359       .  S
C1600      C1601   1.412   1_545  A
C1601      C1602   1.418   1_565  A
C1601      F1608   1.357       .  S
C1602      F1607   1.354   1_545  S
C1603      C1604   1.433       .  A
C1604      F1605   1.356       .  S
C1609      C1610   1.418       .  A
C1609      C1614   1.394       .  A
C1609      F1616   1.358       .  S
C1610      C1611   1.422       .  A
C1612      F1617   1.357       .  S
C1613      C1614   1.407       .  A
C1614      F1615   1.359   1_556  S
C1619      C1620   1.424       .  A
C1619      F1626   1.354       .  S
C1620      C1621   1.428       .  A
C1621      C3270   1.399       .  A
C1621      F3276   1.351       .  S
C1622      C3269   1.399       .  A
C1622      C2447   1.400       .  A
C1622      F1627   1.358   1_665  S
C1623      C2671   1.488       .  S
C1623      C2446   1.400       .  A
C1623      C1624   1.408       .  A
C1624      F1625   1.359       .  S
F1628      C3269   1.351       .  S
C1629      C1630   1.429       .  A
C1629      C1634   1.410       .  A
C1629      F1636   1.357       .  S
C1630      C1631   1.426       .  A
C1631      C1632   1.415       .  A
C1631      F1638   1.353       .  S
C1632      C1633   1.403       .  A
C1632      F1637   1.355       .  S
C1633      C1634   1.403       .  A
C1634      F1635   1.358       .  S
C1639      C1640   1.433       .  A
C1639      C1644   1.372       .  A
C1639      F1646   1.356       .  S
C1640      C1641   1.421       .  A
C1641      C1642   1.415       .  A
C1641      F1648   1.358       .  S
C1642      C1643   1.411       .  A
C1642      F3295   1.357       .  S
C1643      C2727   1.485       .  S
C1643      C1644   1.396       .  A
C1644      F1645   1.361   1_556  S
F1647      C3290   1.357       .  S
C1649      C2434   1.563       .  S
C1649      C2444   1.573       .  S
C1649      C2454   1.591       .  S
C1649      C2464   1.580       .  S
O1650     Zr1662   2.328       .  S
O1650      C1652   1.266       .  A
O1651     Zr1688   2.432       .  S
O1651      C1652   1.294       .  A
C1652      C2668   1.422       .  S
O1653     Zr1665   2.417       .  S
O1653      C1655   1.286       .  A
O1654     Zr1689   2.396       .  S
O1654      C1655   1.279       .  A
C1655      C2818   1.428       .  S
O1656     Zr1665   2.471       .  S
O1656      C1658   1.294       .  A
O1657     Zr1688   2.458       .  S
O1657      C1658   1.293       .  A
C1658      C2424   1.517       .  S
O1659     Zr1662   2.415       .  S
O1659      C1661   1.281       .  A
O1660     Zr1689   2.426       .  S
O1660      C1661   1.285       .  A
C1661      C2404   1.459   1_655  S
Zr1662     O1668   2.389       .  S
Zr1662     O1669   2.330       .  S
Zr1662     O1692   2.324       .  S
Zr1662     O1694   2.374       .  S
Zr1662     O2487   2.434       .  S
O1663     Zr2486   2.434   1_545  S
O1663      H1706   0.989       .  S
O1664      H1705   0.990       .  S
O1664      H1709   0.990       .  S
Zr1665     O1669   2.375       .  S
Zr1665     O1668   2.353       .  S
Zr1665     O1693   2.348       .  S
Zr1665     O1695   2.383       .  S
Zr1665     O2490   2.436       .  S
Zr1665     O1667   2.434       .  S
O1666     Zr2489   2.436   1_545  S
O1666      H1707   0.990       .  S
O1666      H1710   0.990       .  S
O1667      H1700   0.990       .  S
O1668     Zr1688   2.393       .  S
O1669     Zr1689   2.384       .  S
O1669      H1696   0.966       .  S
O1670     Zr1682   2.365       .  S
O1670      C1672   1.271       .  A
O1671     Zr1689   2.393       .  S
O1671      C1672   1.284       .  A
O1673     Zr1685   2.371       .  S
O1673      C1675   1.275       .  A
O1674     Zr1688   2.445       .  S
O1674      C1675   1.295       .  A
C1675      C2094   1.446       .  S
O1676     Zr1685   2.433       .  S
O1676      C1678   1.286       .  A
O1677     Zr1689   2.448       .  S
O1677      C1678   1.289       .  A
C1678      C2394   1.495       .  S
O1679     Zr1682   2.435       .  S
O1679      C1681   1.283       .  A
O1680     Zr1688   2.474       .  S
O1680      C1681   1.296       .  A
C1681      C2414   1.488       .  S
Zr1682     O1690   2.387       .  S
Zr1682     O1691   2.350       .  S
Zr1682     O1694   2.345       .  S
Zr1682     O1692   2.376       .  S
Zr1682     O1683   2.421       .  S
O1683      H1703   0.989       .  S
O1683      H1708   0.990       .  S
O1684      H1704   0.991       .  S
Zr1685     O1691   2.394       .  S
Zr1685     O1690   2.352       .  S
Zr1685     O1695   2.351       .  S
Zr1685     O1693   2.373       .  S
Zr1685     O1686   2.436       .  S
Zr1685     O1687   2.436       .  S
O1686      H1702   0.990       .  S
O1687      H1701   0.990       .  S
O1687      H1711   0.990       .  S
Zr1688     O1691   2.388       .  S
Zr1688     O1693   2.384       .  S
Zr1688     O1694   2.381       .  S
Zr1689     O1690   2.386       .  S
Zr1689     O1692   2.368       .  S
Zr1689     O1695   2.379       .  S
O1690      H1698   0.966       .  S
O1693      H1697   0.965       .  S
O1694      H1699   0.964       .  S
O1712     Zr1724   2.334       .  S
O1712      C1714   1.267       .  A
O1713     Zr1750   2.391       .  S
O1713      C1714   1.283       .  A
O1715     Zr1727   2.355       .  S
O1715      C1717   1.272       .  A
O1716     Zr1751   2.405       .  S
O1716      C1717   1.286       .  A
C1717      C2091   1.425       .  S
O1718     Zr1727   2.407       .  S
O1718      C1720   1.282       .  A
O1719     Zr1750   2.450       .  S
O1719      C1720   1.288       .  A
C1720      C2377   1.484   1_556  S
O1721     Zr1724   2.414       .  S
O1721      C1723   1.281       .  A
O1722     Zr1751   2.452       .  S
O1722      C1723   1.290       .  A
C1723      C2384   1.475       .  S
Zr1724     O1730   2.381       .  S
Zr1724     O1731   2.339       .  S
Zr1724     O1754   2.331       .  S
Zr1724     O1756   2.383       .  S
Zr1724     O1725   2.435       .  S
O1725      H1768   0.990       .  S
O1726      H1767   0.990       .  S
O1726      H1771   0.990       .  S
Zr1727     O1731   2.386       .  S
Zr1727     O1730   2.344       .  S
Zr1727     O1755   2.345       .  S
Zr1727     O1757   2.369       .  S
Zr1727     O1728   2.426       .  S
Zr1727     O1729   2.434       .  S
O1728      H1769   0.988       .  S
O1728      H1772   0.990       .  S
O1729      H1762   0.990       .  S
O1730     Zr1750   2.379       .  S
O1731     Zr1751   2.384       .  S
O1731      H1758   0.966       .  S
O1732     Zr1744   2.348       .  S
O1732      C1734   1.271       .  A
O1733     Zr1751   2.407       .  S
O1733      C1734   1.285       .  A
O1735     Zr1747   2.426       .  S
O1735      C1737   1.288       .  A
O1736     Zr1750   2.388       .  S
O1736      C1737   1.279       .  A
C1737      C1971   1.439   1_556  S
O1738     Zr1747   2.460       .  S
O1738      C1740   1.293       .  A
O1739     Zr1751   2.425       .  S
O1739      C1740   1.285       .  A
C1740      C2354   1.498       .  S
O1741     Zr1744   2.417       .  S
O1741      C1743   1.283       .  A
O1742     Zr1750   2.417       .  S
O1742      C1743   1.283       .  A
C1743      C2364   1.465   1_556  S
Zr1744     O1752   2.371       .  S
Zr1744     O1753   2.331       .  S
Zr1744     O1756   2.339       .  S
Zr1744     O1754   2.372       .  S
Zr1744     O1745   2.434       .  S
O1745      H1765   0.990       .  S
O1745      H1770   0.990       .  S
O1746      H1766   0.990       .  S
Zr1747     O1753   2.373       .  S
Zr1747     O1752   2.358       .  S
Zr1747     O1757   2.344       .  S
Zr1747     O1755   2.374       .  S
Zr1747     O1748   2.433       .  S
Zr1747     O1749   2.432       .  S
O1748      H1764   0.990       .  S
O1749      H1763   0.990       .  S
O1749      H1773   0.990       .  S
Zr1750     O1753   2.383       .  S
Zr1750     O1755   2.382       .  S
Zr1750     O1756   2.380       .  S
Zr1751     O1752   2.393       .  S
Zr1751     O1754   2.360       .  S
Zr1751     O1757   2.379       .  S
O1752      H1760   0.966       .  S
O1755      H1759   0.966       .  S
O1756      H1761   0.965       .  S
O1774     Zr1786   2.339       .  S
O1774      C1776   1.263       .  A
O1775     Zr1812   2.523       .  S
O1775      C1776   1.313       .  A
C1776      C2798   1.460   1_556  S
O1777     Zr1789   2.346       .  S
O1777      C1779   1.269       .  A
O1778     Zr1813   2.438       .  S
O1778      C1779   1.288       .  A
C1779      C1909   1.428       .  S
O1780     Zr1789   2.380       .  S
O1780      C1782   1.275       .  A
O1781     Zr1812   2.512       .  S
O1781      C1782   1.303       .  A
C1782      C2334   1.507       .  S
O1783     Zr1786   2.374       .  S
O1783      C1785   1.273       .  A
O1784     Zr1813   2.479       .  S
O1784      C1785   1.295       .  A
C1785      C2327   1.483       .  S
Zr1786     O1792   2.357       .  S
Zr1786     O1793   2.349       .  S
Zr1786     O1816   2.343       .  S
Zr1786     O1818   2.375       .  S
Zr1786     O1787   2.438       .  S
Zr1786     O2612   2.428       .  S
O1787      H1830   0.991   1_556  S
O1788     Zr2610   2.428   1_545  S
O1788      H1829   0.989       .  S
O1788      H1833   0.990       .  S
Zr1789     O1793   2.370       .  S
Zr1789     O1792   2.330       .  S
Zr1789     O1817   2.337       .  S
Zr1789     O1819   2.359       .  S
Zr1789     O1790   2.432       .  S
Zr1789     O1791   2.434       .  S
O1790      H1831   0.990   1_556  S
O1790      H1834   0.990   1_556  S
O1791      H1824   0.990       .  S
O1792     Zr1812   2.362       .  S
O1793     Zr1813   2.387       .  S
O1793      H1820   0.965       .  S
O1794     Zr1806   2.382       .  S
O1794      C1796   1.275       .  A
O1795     Zr1813   2.407       .  S
O1795      C1796   1.283       .  A
C1796      C2688   1.424       .  S
O1797     Zr1809   2.369       .  S
O1797      C1799   1.274       .  A
O1798     Zr1812   2.455       .  S
O1798      C1799   1.293       .  A
C1799      C2114   1.442       .  S
O1800     Zr1809   2.418       .  S
O1800      C1802   1.283       .  A
O1801     Zr1813   2.492       .  S
O1801      C1802   1.299       .  A
C1802      C2317   1.494       .  S
O1803     Zr1806   2.395       .  S
O1803      C1805   1.277       .  A
O1804     Zr1812   2.539       .  S
O1804      C1805   1.311       .  A
C1805      C2347   1.505       .  S
Zr1806     O1814   2.368       .  S
Zr1806     O1815   2.337       .  S
Zr1806     O1818   2.368       .  S
Zr1806     O1816   2.369       .  S
Zr1806     O1807   2.436       .  S
Zr1806     O2632   2.431       .  S
O1807      H1827   0.990       .  S
O1807      H1832   0.990       .  S
O1808     Zr2630   2.431   1_545  S
O1808      H1828   0.987       .  S
Zr1809     O1815   2.359       .  S
Zr1809     O1814   2.350       .  S
Zr1809     O1819   2.348       .  S
Zr1809     O1817   2.369       .  S
Zr1809     O1810   2.433       .  S
Zr1809     O1811   2.435       .  S
O1810      H1826   0.990       .  S
O1811      H1825   0.990       .  S
O1811      H1835   0.990       .  S
Zr1812     O1815   2.388       .  S
Zr1812     O1817   2.412       .  S
Zr1812     O1818   2.411       .  S
Zr1813     O1814   2.397       .  S
Zr1813     O1816   2.408       .  S
Zr1813     O1819   2.398       .  S
O1814      H1822   0.965       .  S
O1817      H1821   0.966       .  S
O1818      H1823   0.966       .  S
C1836      C2277   1.579       .  S
C1836      C2284   1.569       .  S
C1836      C2294   1.595       .  S
C1836      C2304   1.599       .  S
C1837      C2237   1.585       .  S
C1837      C2244   1.601       .  S
C1837      C2257   1.580       .  S
C1837      C2267   1.605       .  S
C1838      C2194   1.589       .  S
C1838      C2207   1.587       .  S
C1838      C2217   1.576       .  S
C1838      C2224   1.601       .  S
O1840     Zr1877   2.394       .  S
O1840      C1841   1.285       .  A
O1842      C1844   1.266       .  A
O1843     Zr1878   2.433       .  S
C1844      C2476   1.422       .  S
O1846     Zr1877   2.435       .  S
O1846      C1847   1.287       .  A
O1849     Zr1878   2.490       .  S
O1849      C1850   1.298       .  A
Zr1851     O1857   2.377       .  S
Zr1851     O1858   2.339       .  S
Zr1851     O1881   2.341       .  S
Zr1851     O1883   2.383       .  S
Zr1851     O1853   2.422       .  S
O1852      H1895   0.990       .  S
O1853      H1894   0.987       .  S
Zr1854     O1858   2.372       .  S
Zr1854     O1857   2.335       .  S
Zr1854     O1882   2.330       .  S
Zr1854     O1884   2.380       .  S
Zr1854     O2680   2.438   1_545  S
O1855      H1896   0.990       .  S
O1855      H1899   0.990   1_545  S
O1856     Zr2678   2.438       .  S
O1856      H1889   0.990       .  S
O1857     Zr1877   2.367       .  S
O1858     Zr1878   2.376       .  S
O1859     Zr1871   2.375       .  S
O1859      C1861   1.275       .  A
O1860     Zr1878   2.426       .  S
O1860      C1861   1.292       .  A
C1861      C2035   1.438       .  S
O1862     Zr1874   2.416       .  S
O1862      C1864   1.286       .  A
O1863     Zr1877   2.382       .  S
O1863      C1864   1.277   1_545  A
C1864      C2620   1.424       .  S
O1865     Zr1874   2.461       .  S
O1865      C1867   1.292       .  A
O1866     Zr1878   2.461       .  S
O1866      C1867   1.294   1_545  A
C1867      C3078   1.498       .  S
O1868     Zr1871   2.432       .  S
O1868      C1870   1.286       .  A
O1869     Zr1877   2.443       .  S
O1869      C1870   1.288       .  A
C1870      C2274   1.481       .  S
Zr1871     O1879   2.375       .  S
Zr1871     O1880   2.349       .  S
Zr1871     O1883   2.353       .  S
Zr1871     O1881   2.388       .  S
Zr1871     O1872   2.437       .  S
Zr1871     O1873   2.437       .  S
O1872      H1892   0.990       .  S
O1872      H1897   0.990       .  S
O1873      H1893   0.990       .  S
Zr1874     O1880   2.380   1_565  S
Zr1874     O1879   2.349   1_565  S
Zr1874     O1884   2.354   1_565  S
Zr1874     O1882   2.369   1_565  S
Zr1874     O1875   2.432       .  S
Zr1874     O2700   2.435       .  S
O1875      H1891   0.990   1_565  S
O1876     Zr2698   2.435       .  S
O1876      H1890   0.990       .  S
O1876      H1900   0.990       .  S
Zr1877     O1880   2.380       .  S
Zr1877     O1882   2.383       .  S
Zr1877     O1883   2.384       .  S
Zr1878     O1879   2.390       .  S
Zr1878     O1881   2.384       .  S
Zr1878     O1884   2.388       .  S
O1879      H1887   0.965       .  S
O1882      H2710   0.966   1_545  S
O1883      H1888   0.966       .  S
H1886      O2706   0.966       .  S
O1902     Zr1939   2.412   1_556  S
O1902      C1903   1.279       .  A
O1904     Zr1916   2.478       .  S
O1904      C1906   1.294       .  A
O1905     Zr1940   2.416       .  S
O1905      C1906   1.286       .  A
C1906      C2234   1.488       .  S
O1907     Zr1916   2.436       .  S
O1907      C1909   1.291   1_554  A
O1908     Zr1939   2.372   1_556  S
O1908      C1909   1.273       .  A
O1911     Zr1940   2.404       .  S
O1911      C1912   1.285       .  A
Zr1913     O1919   2.321       .  S
Zr1913     O1920   2.378       .  S
Zr1913     O1943   2.368       .  S
Zr1913     O1945   2.336       .  S
Zr1913     O1914   2.426       .  S
O1914      H1957   0.989       .  S
O1915      H1956   0.990       .  S
O1915      H1960   0.990       .  S
Zr1916     O1920   2.359       .  S
Zr1916     O1919   2.369       .  S
Zr1916     O1944   2.380       .  S
Zr1916     O1946   2.347       .  S
Zr1916     O1917   2.436       .  S
Zr1916     O1918   2.430       .  S
O1917      H1958   0.990       .  S
O1917      H1961   0.990       .  S
O1918      H1951   0.990       .  S
O1919     Zr1939   2.382       .  S
O1920     Zr1940   2.395       .  S
O1920      H1947   0.966       .  S
O1922     Zr1940   2.469       .  S
O1922      C1923   1.294       .  A
O1924     Zr1936   2.418       .  S
O1924      C1926   1.283   1_554  A
O1925     Zr1939   2.436   1_556  S
O1925      C1926   1.285       .  A
C1926      C2287   1.468       .  S
O1927     Zr1936   2.373       .  S
O1927      C1929   1.275       .  A
O1928     Zr1940   2.405       .  S
O1928      C1929   1.286       .  A
C1929      C2038   1.431       .  S
O1931     Zr1939   2.391   1_556  S
O1931      C1932   1.284       .  A
Zr1933     O1941   2.345       .  S
Zr1933     O1942   2.390       .  S
Zr1933     O1945   2.387       .  S
Zr1933     O1943   2.322       .  S
Zr1933     O1934   2.435       .  S
O1934      H1954   0.989       .  S
O1935      H1955   0.990       .  S
Zr1936     O1942   2.351       .  S
Zr1936     O1941   2.381       .  S
Zr1936     O1946   2.371       .  S
Zr1936     O1944   2.352       .  S
Zr1936     O1937   2.428       .  S
Zr1936     O1938   2.439       .  S
O1937      H1953   0.990       .  S
O1938      H1952   0.990       .  S
O1938      H1962   0.990       .  S
Zr1939     O1942   2.376       .  S
Zr1939     O1944   2.387       .  S
Zr1939     O1945   2.379       .  S
Zr1940     O1941   2.373       .  S
Zr1940     O1943   2.357       .  S
Zr1940     O1946   2.376       .  S
O1941      H1949   0.965       .  S
O1944      H1948   0.966       .  S
O1963     Zr2799   2.348       .  S
O1963      C2789   1.268       .  A
O1964     Zr2001   2.499       .  S
O1964      C1965   1.299       .  A
C1965      O2787   1.268   1_545  A
C1965      C3261   1.473   1_544  S
O1966     Zr1978   2.435   1_556  S
O1966      C1968   1.284   1_556  A
O1967     Zr2002   2.512       .  S
O1967      C1968   1.306       .  A
C1968      C2297   1.502   1_554  S
O1969     Zr1978   2.417       .  S
O1969      C1971   1.276       .  A
O1970     Zr2001   2.408       .  S
O1970      C1971   1.279       .  A
O1972     Zr2799   2.325   1_556  S
O1972      C2798   1.263   1_556  A
O1973     Zr2002   2.529       .  S
O1973      C1974   1.313   1_545  A
C1974      O2796   1.263   1_554  A
C1974      C2600   1.460   1_554  S
Zr1975     O2787   2.348       .  S
Zr1975     O2796   2.325   1_554  S
Zr1975     O1981   2.332   1_565  S
Zr1975     O1982   2.366   1_565  S
Zr1975     O2005   2.360       .  S
Zr1975     O2007   2.343   1_565  S
Zr1975     O1976   2.435   1_554  S
Zr1975     O2801   2.433       .  S
O1976      H2019   0.991   1_565  S
O1977     Zr2799   2.433       .  S
O1977      H2018   0.988       .  S
O1977      H2022   0.990       .  S
Zr1978     O1982   2.362       .  S
Zr1978     O1981   2.359       .  S
Zr1978     O2006   2.376       .  S
Zr1978     O2008   2.370       .  S
Zr1978     O1979   2.437   1_554  S
Zr1978     O1980   2.437       .  S
O1979      H2020   0.990       .  S
O1979      H2023   0.990       .  S
O1980      H2013   0.990       .  S
O1981     Zr2001   2.385       .  S
O1982     Zr2002   2.395       .  S
O1982      H2009   0.963       .  S
O1983     Zr2819   2.388       .  S
O1983      C2809   1.275       .  A
O1984     Zr2002   2.561       .  S
O1984      C1985   1.312   1_545  A
C1985      O2807   1.275       .  A
C1985      C3071   1.538       .  S
O1986     Zr1998   2.410       .  S
O1986      C1988   1.281       .  A
O1987     Zr2001   2.508       .  S
O1987      C1988   1.301       .  A
C1988      C2197   1.521       .  S
O1989     Zr1998   2.383       .  S
O1989      C1991   1.276       .  A
O1990     Zr2002   2.488       .  S
O1990      C1991   1.300       .  A
C1991      C2055   1.461       .  S
O1992     Zr2819   2.370       .  S
O1992      C2818   1.274       .  A
O1993     Zr2001   2.424       .  S
O1993      C1994   1.286   1_545  A
C1994      O2816   1.274       .  A
C1994      C2479   1.428       .  S
Zr1995     O2807   2.387   1_545  S
Zr1995     O2816   2.370   1_545  S
Zr1995     O2003   2.339       .  S
Zr1995     O2004   2.360       .  S
Zr1995     O2007   2.360       .  S
Zr1995     O2005   2.367   1_545  S
Zr1995     O1996   2.438       .  S
Zr1995     O2821   2.436   1_545  S
O1996      H2016   0.990       .  S
O1996      H2845   0.990   1_545  S
O1997     Zr2819   2.436       .  S
O1997      H2017   0.990       .  S
Zr1998     O2004   2.351       .  S
Zr1998     O2003   2.360       .  S
Zr1998     O2008   2.371       .  S
Zr1998     O2006   2.346       .  S
Zr1998     O1999   2.434       .  S
Zr1998     O2000   2.426       .  S
O1999      H2015   0.991       .  S
O2000      H2014   0.989       .  S
O2000      H2024   0.990       .  S
Zr2001     O2004   2.383       .  S
Zr2001     O2006   2.419       .  S
Zr2001     O2007   2.404       .  S
Zr2002     O2003   2.399       .  S
Zr2002     O2005   2.406   1_545  S
Zr2002     O2008   2.424       .  S
O2003      H2011   0.964       .  S
O2006      H2010   0.966       .  S
O2007      H2836   0.966   1_545  S
H2012      O2831   0.966       .  S
H2021      O2820   0.990       .  S
C2025      C2187   1.609       .  S
C2025      C2337   1.607       .  S
C2025      C2374   1.589       .  S
C2025      C2397   1.603       .  S
C2026      C2174   1.604       .  S
C2026      C2314   1.584       .  S
C2026      C2387   1.572       .  S
C2026      C2417   1.588       .  S
O2027     Zr2039   2.449       .  S
O2027      C2029   1.287       .  A
O2028     Zr2065   2.514       .  S
O2028      C2029   1.304       .  A
C2029      C2177   1.520       .  S
O2030     Zr2042   2.452       .  S
O2030      C2032   1.288       .  A
O2031     Zr2066   2.458       .  S
O2031      C2032   1.292       .  A
C2032      C2157   1.500       .  S
O2033     Zr2042   2.366       .  S
O2033      C2035   1.274       .  A
O2034     Zr2065   2.430       .  S
O2034      C2035   1.292       .  A
O2036     Zr2039   2.372       .  S
O2036      C2038   1.275       .  A
O2037     Zr2066   2.408       .  S
O2037      C2038   1.287       .  A
Zr2039     O2045   2.340       .  S
Zr2039     O2046   2.392       .  S
Zr2039     O2069   2.386       .  S
Zr2039     O2071   2.356       .  S
Zr2039     O2040   2.434       .  S
Zr2039     O2041   2.438       .  S
O2040      H2083   0.990       .  S
O2041      H2082   0.990       .  S
O2041      H2086   0.990       .  S
Zr2042     O2046   2.345       .  S
Zr2042     O2045   2.384       .  S
Zr2042     O2070   2.389       .  S
Zr2042     O2072   2.339       .  S
Zr2042     O2043   2.438       .  S
Zr2042     O2044   2.431       .  S
O2043      H2084   0.990       .  S
O2043      H2087   0.990       .  S
O2044      H2077   0.990       .  S
O2045     Zr2065   2.378       .  S
O2046     Zr2066   2.384       .  S
O2046      H2073   0.966       .  S
O2047     Zr2059   2.444       .  S
O2047      C2049   1.286       .  A
O2048     Zr2066   2.469       .  S
O2048      C2049   1.294       .  A
C2049      C2184   1.492       .  S
O2050     Zr2062   2.514       .  S
O2050      C2052   1.303       .  A
O2051     Zr2065   2.474       .  S
O2051      C2052   1.297       .  A
C2052      C2164   1.528       .  S
O2053     Zr2062   2.467       .  S
O2053      C2055   1.296       .  A
O2054     Zr2066   2.414       .  S
O2054      C2055   1.283       .  A
O2056     Zr2059   2.391       .  S
O2056      C2058   1.278       .  A
O2057     Zr2065   2.450       .  S
O2057      C2058   1.295       .  A
C2058      C2111   1.458       .  S
Zr2059     O2067   2.361       .  S
Zr2059     O2068   2.380       .  S
Zr2059     O2071   2.393       .  S
Zr2059     O2069   2.355       .  S
Zr2059     O2060   2.437       .  S
Zr2059     O2061   2.431       .  S
O2060      H2080   0.990       .  S
O2060      H2085   0.990       .  S
O2061      H2081   0.990       .  S
Zr2062     O2068   2.363       .  S
Zr2062     O2067   2.393       .  S
Zr2062     O2072   2.379       .  S
Zr2062     O2070   2.364       .  S
Zr2062     O2063   2.434       .  S
Zr2062     O2064   2.436       .  S
O2063      H2079   0.990       .  S
O2064      H2078   0.990       .  S
O2064      H2088   0.990       .  S
Zr2065     O2068   2.387       .  S
Zr2065     O2070   2.409       .  S
Zr2065     O2071   2.386       .  S
Zr2066     O2067   2.394       .  S
Zr2066     O2069   2.384       .  S
Zr2066     O2072   2.386       .  S
O2067      H2075   0.966       .  S
O2070      H2074   0.966       .  S
O2071      H2076   0.966       .  S
O2089     Zr2101   2.361       .  S
O2089      C2091   1.273       .  A
O2090     Zr2127   2.402       .  S
O2090      C2091   1.286       .  A
O2092     Zr2104   2.374       .  S
O2092      C2094   1.275       .  A
O2093     Zr2128   2.445       .  S
O2093      C2094   1.295       .  A
O2095     Zr2104   2.469       .  S
O2095      C2097   1.292       .  A
O2096     Zr2127   2.461       .  S
O2096      C2097   1.292       .  A
C2097      C2457   1.501       .  S
O2098     Zr2101   2.452       .  S
O2098      C2100   1.288       .  A
O2099     Zr2128   2.506       .  S
O2099      C2100   1.302       .  A
C2100      C2227   1.515       .  S
Zr2101     O2107   2.394       .  S
Zr2101     O2108   2.342       .  S
Zr2101     O2131   2.343       .  S
Zr2101     O2133   2.386       .  S
Zr2101     O2102   2.434       .  S
Zr2101     O2103   2.434       .  S
O2102      H2145   0.990       .  S
O2103      H2144   0.990       .  S
O2103      H2148   0.990       .  S
Zr2104     O2108   2.390       .  S
Zr2104     O2107   2.345       .  S
Zr2104     O2132   2.336       .  S
Zr2104     O2134   2.395       .  S
Zr2104     O2105   2.436       .  S
Zr2104     O2106   2.435       .  S
O2105      H2146   0.990       .  S
O2105      H2149   0.990       .  S
O2106      H2139   0.990       .  S
O2107     Zr2127   2.383       .  S
O2108     Zr2128   2.386       .  S
O2108      H2135   0.965       .  S
O2109     Zr2121   2.392       .  S
O2109      C2111   1.279       .  A
O2110     Zr2128   2.456       .  S
O2110      C2111   1.297       .  A
O2112     Zr2124   2.440       .  S
O2112      C2114   1.291       .  A
O2113     Zr2127   2.405       .  S
O2113      C2114   1.281       .  A
O2115     Zr2124   2.490       .  S
O2115      C2117   1.297       .  A
O2116     Zr2128   2.483       .  S
O2116      C2117   1.298       .  A
C2117      C2264   1.520       .  S
O2118     Zr2121   2.447       .  S
O2118      C2120   1.289       .  A
O2119     Zr2127   2.496       .  S
O2119      C2120   1.298       .  A
C2120      C2307   1.528       .  S
Zr2121     O2129   2.378       .  S
Zr2121     O2130   2.353       .  S
Zr2121     O2133   2.353       .  S
Zr2121     O2131   2.396       .  S
Zr2121     O2122   2.437       .  S
Zr2121     O2123   2.433       .  S
O2122      H2142   0.990       .  S
O2122      H2147   0.990       .  S
O2123      H2143   0.990       .  S
Zr2124     O2130   2.387       .  S
Zr2124     O2129   2.349       .  S
Zr2124     O2134   2.361       .  S
Zr2124     O2132   2.383       .  S
Zr2124     O2125   2.433       .  S
Zr2124     O2126   2.423       .  S
O2125      H2141   0.990       .  S
O2126      H2140   0.990       .  S
O2126      H2150   0.990       .  S
Zr2127     O2130   2.391       .  S
Zr2127     O2132   2.395       .  S
Zr2127     O2133   2.392       .  S
Zr2128     O2129   2.394       .  S
Zr2128     O2131   2.388       .  S
Zr2128     O2134   2.400       .  S
O2129      H2137   0.965       .  S
O2132      H2136   0.965       .  S
O2133      H2138   0.966       .  S
C2151      C2167   1.602       .  S
C2151      C2344   1.589       .  S
C2151      C2357   1.590       .  S
C2151      C2427   1.597       .  S
C2152      C2154   1.621       .  S
C2152      C2324   1.596       .  S
C2152      C2367   1.586       .  S
C2152      C2407   1.590       .  S
C2153      C2154   1.442       .  A
C2153      C2158   1.414       .  A
C2153      F2160   1.355       .  S
C2154      C2155   1.431       .  A
C2155      C2156   1.405       .  A
C2155      F2162   1.340       .  S
C2156      C2157   1.396       .  A
C2156      F2161   1.359       .  S
C2157      C2158   1.397       .  A
C2158      F2159   1.355       .  S
C2163      C2164   1.414       .  A
C2163      C2168   1.426       .  A
C2163      F2170   1.355       .  S
C2164      C2165   1.407       .  A
C2165      C2166   1.417       .  A
C2165      F2172   1.358       .  S
C2166      C2167   1.429       .  A
C2166      F2171   1.358       .  S
C2167      C2168   1.426       .  A
C2168      F2169   1.354       .  S
C2173      C2174   1.423       .  A
C2173      C2178   1.419       .  A
C2173      F2180   1.356       .  S
C2174      C2175   1.436       .  A
C2175      C2176   1.419       .  A
C2175      F2182   1.355       .  S
C2176      C2177   1.404       .  A
C2176      F2181   1.358       .  S
C2177      C2178   1.413       .  A
C2178      F2179   1.358       .  S
C2183      C2184   1.400       .  A
C2183      C2188   1.413       .  A
C2183      F2190   1.357       .  S
C2184      C2185   1.393       .  A
C2185      C2186   1.406       .  A
C2185      F2192   1.356       .  S
C2186      C2187   1.435       .  A
C2186      F2191   1.350       .  S
C2187      C2188   1.436       .  A
C2188      F2189   1.359       .  S
C2193      C2194   1.422       .  A
C2193      C2198   1.396       .  A
C2193      F2200   1.356       .  S
C2194      C2195   1.431       .  A
C2195      C2196   1.422       .  A
C2195      F2202   1.357       .  S
C2196      C2197   1.409       .  A
C2196      F2201   1.357       .  S
C2197      C2198   1.416       .  A
C2198      F2199   1.359       .  S
C2203      C2204   1.406       .  A
C2203      C2208   1.407       .  A
C2203      F2210   1.358       .  S
C2205      F2212   1.359       .  S
C2206      C2207   1.438       .  A
C2206      F2211   1.355       .  S
C2207      C2208   1.421       .  A
C2208      F2209   1.356       .  S
C2213      C2214   1.406       .  A
C2213      C2218   1.416       .  A
C2214      C2215   1.404       .  A
C2215      C2216   1.399       .  A
C2215      F2222   1.359       .  S
C2216      C2217   1.422       .  A
C2216      F2221   1.357       .  S
C2217      C2218   1.426       .  A
C2218      F2219   1.355       .  S
C2223      C2224   1.426       .  A
C2223      C2228   1.419       .  A
C2223      F2230   1.348       .  S
C2224      C2225   1.426       .  A
C2225      C2226   1.416       .  A
C2225      F2232   1.357       .  S
C2226      C2227   1.409       .  A
C2226      F2231   1.358       .  S
C2227      C2228   1.407       .  A
C2228      F2229   1.357       .  S
C2233      C2234   1.396       .  A
C2233      C2238   1.397       .  A
C2233      F2240   1.359       .  S
C2234      C2235   1.403       .  A
C2235      C2236   1.410       .  A
C2235      F2242   1.357       .  S
C2236      C2237   1.427       .  A
C2236      F2241   1.357       .  S
C2237      C2238   1.435       .  A
C2238      F2239   1.354       .  S
C2243      C2244   1.438       .  A
C2243      C2248   1.430       .  A
C2243      F2250   1.357       .  S
C2244      C2245   1.418       .  A
C2245      C2246   1.397       .  A
C2245      F2252   1.354       .  S
C2246      C2247   1.425       .  A
C2246      F2251   1.358       .  S
C2247      C2809   1.538       .  S
C2247      C2248   1.410       .  A
C2248      F2249   1.357       .  S
C2253      C3078   1.407       .  A
C2253      C3082   1.415       .  A
C2253      F2260   1.356   1_565  S
C2254      C2691   1.498       .  S
C2254      C3077   1.407       .  A
C2254      C2255   1.401       .  A
C2255      C2256   1.403       .  A
C2255      F2262   1.358       .  S
C2256      C2257   1.429       .  A
C2256      F2261   1.358       .  S
C2257      C2258   1.422       .  A
C2258      C3077   1.415       .  A
C2258      F3083   1.354       .  S
F2259      C3082   1.354   1_545  S
C2263      C2264   1.406       .  A
C2263      C2268   1.415       .  A
C2263      F2270   1.358       .  S
C2264      C2265   1.409       .  A
C2265      C2266   1.422       .  A
C2265      F2272   1.356       .  S
C2266      C2267   1.429       .  A
C2266      F2271   1.354       .  S
C2267      C2268   1.430       .  A
C2268      F2269   1.358       .  S
C2273      C2274   1.395       .  A
C2273      C2278   1.392       .  A
C2273      F2280   1.359       .  S
C2274      C2275   1.404       .  A
C2275      C2276   1.412       .  A
C2275      F2282   1.357       .  S
C2276      C2277   1.423       .  A
C2276      F2281   1.351       .  S
C2277      C2278   1.429       .  A
C2278      F2279   1.357       .  S
C2283      C2284   1.423       .  A
C2283      C2288   1.410       .  A
C2283      F2290   1.353       .  S
C2284      C2285   1.430       .  A
C2285      C2286   1.386       .  A
C2285      F2292   1.357       .  S
C2286      C2287   1.391       .  A
C2286      F2291   1.359       .  S
C2287      C2288   1.403       .  A
C2288      F2289   1.356       .  S
C2293      C2294   1.418       .  A
C2293      C2298   1.417       .  A
C2293      F2300   1.357       .  S
C2294      C2295   1.439       .  A
C2295      C2296   1.407       .  A
C2295      F2302   1.356       .  S
C2296      C2297   1.396       .  A
C2296      F2301   1.358   1_556  S
C2297      C2298   1.414       .  A
C2298      F2299   1.358       .  S
C2303      C2304   1.429       .  A
C2303      C2308   1.399       .  A
C2303      F2310   1.357       .  S
C2304      C2305   1.424       .  A
C2305      C2306   1.429       .  A
C2305      F2312   1.357       .  S
C2306      C2307   1.417       .  A
C2306      F2311   1.357       .  S
C2307      C2308   1.411       .  A
C2308      F2309   1.359       .  S
C2313      C2314   1.430       .  A
C2313      C2318   1.416       .  A
C2313      F2320   1.353       .  S
C2314      C2315   1.425       .  A
C2315      C2316   1.398       .  A
C2315      F2322   1.357       .  S
C2316      C2317   1.402       .  A
C2316      F2321   1.359       .  S
C2317      C2318   1.405       .  A
C2318      F2319   1.357       .  S
C2323      C3148   1.444       .  A
C2323      C2328   1.408   1_554  A
C2323      F2330   1.352       .  S
C2324      C3147   1.444   1_545  A
C2324      C2325   1.421       .  A
C2325      C2326   1.393   1_554  A
C2325      F2332   1.344       .  S
C2326      C3151   1.401   1_545  A
C2326      F2331   1.360       .  S
C2327      C3150   1.401       .  A
C2327      C2328   1.394       .  A
C2328      F2329   1.358       .  S
C2333      C2334   1.397       .  A
C2333      C2338   1.418   1_556  A
C2333      F2340   1.357       .  S
C2334      C2335   1.411   1_556  A
C2335      C2336   1.394       .  A
C2335      F2342   1.359   1_554  S
C2336      C2337   1.427       .  A
C2336      F2341   1.358       .  S
C2337      C2338   1.440       .  A
C2338      F2339   1.346       .  S
C2343      C2344   1.426       .  A
C2343      C2348   1.404       .  A
C2343      F2350   1.356       .  S
C2344      C3169   1.423   1_545  A
C2345      C3168   1.423       .  A
C2345      C2346   1.428       .  A
C2345      F2352   1.352       .  S
C2346      C2347   1.412       .  A
C2346      F2351   1.355       .  S
C2347      C3172   1.405       .  A
C2348      C3171   1.405   1_545  A
C2348      F2349   1.359       .  S
C2353      C2354   1.395       .  A
C2353      C2358   1.385       .  A
C2353      F2360   1.360       .  S
C2354      C2355   1.413       .  A
C2355      C2356   1.420       .  A
C2355      F2362   1.357       .  S
C2356      C2357   1.422       .  A
C2356      F2361   1.356       .  S
C2357      C2358   1.438       .  A
C2358      F2359   1.354       .  S
C2363      C2364   1.396   1_455  A
C2363      F2370   1.354       .  S
C2364      C2365   1.390       .  A
C2365      F2372   1.360   1_554  S
C2366      C2367   1.426       .  A
C2366      F2371   1.346       .  S
C2367      C2368   1.429       .  A
C2368      F2369   1.358       .  S
C2373      C2374   1.436       .  A
C2373      C2378   1.409       .  A
C2373      F2380   1.358       .  S
C2374      C2375   1.421       .  A
C2375      C2376   1.387       .  A
C2375      F2382   1.345       .  S
C2376      C2377   1.401       .  A
C2376      F2381   1.360   1_554  S
C2377      C2378   1.400       .  A
C2378      F2379   1.357       .  S
C2383      C2384   1.394       .  A
C2383      C2388   1.391   1_655  A
C2383      F2390   1.359       .  S
C2385      C2386   1.413       .  A
C2385      F2392   1.356       .  S
C2386      C2387   1.418       .  A
C2386      F2391   1.353       .  S
C2388      F2389   1.357       .  S
C2393      C2394   1.401       .  A
C2393      C2398   1.397       .  A
C2393      F2400   1.359       .  S
C2394      C2395   1.400       .  A
C2395      C2396   1.409       .  A
C2395      F2402   1.358       .  S
C2396      C2397   1.440       .  A
C2396      F2401   1.359       .  S
C2397      C2398   1.427       .  A
C2398      F2399   1.344       .  S
C2403      C3228   1.386   1_645  A
C2403      C2408   1.389   1_655  A
C2403      F2410   1.360       .  S
C2404      C3227   1.386   1_455  A
C2405      C2406   1.403       .  A
C2405      F2412   1.358       .  S
C2406      C3231   1.436       .  A
C2406      F2411   1.356       .  S
C2407      C3230   1.436   1_545  A
C2408      F2409   1.349       .  S
C2413      C2414   1.391       .  A
C2413      C2418   1.398   1_655  A
C2413      F2420   1.359       .  S
C2415      C2416   1.415       .  A
C2415      F2422   1.358       .  S
C2416      C2417   1.418       .  A
C2416      F2421   1.357       .  S
C2418      F2419   1.357   1_455  S
C2423      C3248   1.406       .  A
C2423      C2428   1.402       .  A
C2423      F2430   1.359       .  S
C2424      C3247   1.406       .  A
C2424      C2425   1.412       .  A
C2425      C2426   1.418       .  A
C2425      F2432   1.357       .  S
C2426      C3251   1.427       .  A
C2426      F2431   1.354       .  S
C2427      C3250   1.427       .  A
C2427      C2428   1.433       .  A
C2428      F2429   1.356       .  S
C2433      C2434   1.418       .  A
C2433      C2438   1.394       .  A
C2433      F2440   1.358       .  S
C2434      C2435   1.422       .  A
C2435      C3260   1.411       .  A
C2435      F3266   1.354       .  S
C2436      C3259   1.411   1_545  A
C2436      C3261   1.406   1_545  A
C2436      F2441   1.357       .  S
C2437      C2789   1.473   1_556  S
C2437      C3260   1.406       .  A
C2437      C2438   1.407       .  A
C2438      F2439   1.359   1_556  S
F2442      C3259   1.354   1_545  S
C2443      C2444   1.424       .  A
C2443      C3272   1.389       .  A
C2443      F2450   1.354       .  S
C2444      C2445   1.428       .  A
C2446      F2451   1.358       .  S
C2447      C2448   1.408       .  A
C2448      C3267   1.389       .  A
C2448      F2449   1.359       .  S
C2453      C2454   1.429       .  A
C2453      C2458   1.410       .  A
C2453      F2460   1.357       .  S
C2454      C2455   1.426       .  A
C2455      C2456   1.415       .  A
C2455      F2462   1.353       .  S
C2456      C2457   1.403       .  A
C2456      F2461   1.355       .  S
C2457      C2458   1.403       .  A
C2458      F2459   1.358       .  S
C2463      C2464   1.433       .  A
C2463      C2468   1.372       .  A
C2463      F2470   1.356       .  S
C2464      C2465   1.421       .  A
C2465      C2466   1.415       .  A
C2465      F2472   1.358       .  S
C2466      C2467   1.411       .  A
C2467      C2468   1.396       .  A
C2468      F2469   1.361   1_556  S
C2473      C3258   1.563       .  S
C2473      C3268   1.573       .  S
C2473      C3278   1.591       .  S
C2473      C3288   1.580       .  S
O2474     Zr2486   2.328       .  S
O2474      C2476   1.266       .  A
O2475     Zr2512   2.432       .  S
O2475      C2476   1.294       .  A
O2477     Zr2489   2.417       .  S
O2477      C2479   1.286       .  A
O2478     Zr2513   2.396       .  S
O2478      C2479   1.279       .  A
O2480     Zr2489   2.471       .  S
O2480      C2482   1.294       .  A
O2481     Zr2512   2.458       .  S
O2481      C2482   1.293       .  A
C2482      C3248   1.517   1_565  S
O2483     Zr2486   2.415       .  S
O2483      C2485   1.281       .  A
O2484     Zr2513   2.426       .  S
O2484      C2485   1.285       .  A
C2485      C3228   1.459   1_655  S
Zr2486     O2492   2.389       .  S
Zr2486     O2493   2.330       .  S
Zr2486     O2516   2.324       .  S
Zr2486     O2518   2.374       .  S
O2487      H2530   0.989       .  S
O2488      H2529   0.990       .  S
O2488      H2533   0.990       .  S
Zr2489     O2493   2.375       .  S
Zr2489     O2492   2.353       .  S
Zr2489     O2517   2.348       .  S
Zr2489     O2519   2.383       .  S
Zr2489     O2491   2.434       .  S
O2490      H2531   0.990       .  S
O2490      H2534   0.990       .  S
O2491      H2524   0.990       .  S
O2492     Zr2512   2.393       .  S
O2493     Zr2513   2.384       .  S
O2493      H2520   0.966       .  S
O2494     Zr2506   2.365       .  S
O2494      C2496   1.271       .  A
O2495     Zr2513   2.393       .  S
O2495      C2496   1.284       .  A
O2497     Zr2509   2.371       .  S
O2497      C2499   1.275       .  A
O2498     Zr2512   2.445       .  S
O2498      C2499   1.295       .  A
C2499      C2918   1.446       .  S
O2500     Zr2509   2.433       .  S
O2500      C2502   1.286       .  A
O2501     Zr2513   2.448       .  S
O2501      C2502   1.289       .  A
C2502      C3218   1.495       .  S
O2503     Zr2506   2.435       .  S
O2503      C2505   1.283       .  A
O2504     Zr2512   2.474       .  S
O2504      C2505   1.296       .  A
C2505      C3238   1.488       .  S
Zr2506     O2514   2.387       .  S
Zr2506     O2515   2.350       .  S
Zr2506     O2518   2.345       .  S
Zr2506     O2516   2.376       .  S
Zr2506     O2507   2.421       .  S
O2507      H2527   0.989       .  S
O2507      H2532   0.990       .  S
O2508      H2528   0.991       .  S
Zr2509     O2515   2.394       .  S
Zr2509     O2514   2.352       .  S
Zr2509     O2519   2.351       .  S
Zr2509     O2517   2.373       .  S
Zr2509     O2510   2.436       .  S
Zr2509     O2511   2.436       .  S
O2510      H2526   0.990       .  S
O2511      H2525   0.990       .  S
O2511      H2535   0.990       .  S
Zr2512     O2515   2.388       .  S
Zr2512     O2517   2.384       .  S
Zr2512     O2518   2.381       .  S
Zr2513     O2514   2.386       .  S
Zr2513     O2516   2.368       .  S
Zr2513     O2519   2.379       .  S
O2514      H2522   0.966       .  S
O2517      H2521   0.965       .  S
O2518      H2523   0.964       .  S
O2536     Zr2548   2.334       .  S
O2536      C2538   1.267       .  A
O2537     Zr2574   2.391       .  S
O2537      C2538   1.283       .  A
O2539     Zr2551   2.355       .  S
O2539      C2541   1.272       .  A
O2540     Zr2575   2.405       .  S
O2540      C2541   1.286       .  A
C2541      C2915   1.425       .  S
O2542     Zr2551   2.407       .  S
O2542      C2544   1.282       .  A
O2543     Zr2574   2.450       .  S
O2543      C2544   1.288       .  A
C2544      C3201   1.484   1_556  S
O2545     Zr2548   2.414       .  S
O2545      C2547   1.281       .  A
O2546     Zr2575   2.451       .  S
O2546      C2547   1.290       .  A
C2547      C3208   1.475       .  S
Zr2548     O2554   2.381       .  S
Zr2548     O2555   2.339       .  S
Zr2548     O2578   2.331       .  S
Zr2548     O2580   2.383       .  S
Zr2548     O2549   2.435       .  S
O2549      H2592   0.990       .  S
O2550      H2591   0.990       .  S
O2550      H2595   0.990       .  S
Zr2551     O2555   2.386       .  S
Zr2551     O2554   2.344       .  S
Zr2551     O2579   2.345       .  S
Zr2551     O2581   2.369       .  S
Zr2551     O2552   2.426       .  S
Zr2551     O2553   2.434       .  S
O2552      H2593   0.988       .  S
O2552      H2596   0.990       .  S
O2553      H2586   0.990       .  S
O2554     Zr2574   2.379       .  S
O2555     Zr2575   2.384       .  S
O2555      H2582   0.966       .  S
O2556     Zr2568   2.348       .  S
O2556      C2558   1.271       .  A
O2557     Zr2575   2.407       .  S
O2557      C2558   1.285       .  A
O2559     Zr2571   2.426       .  S
O2559      C2561   1.288       .  A
O2560     Zr2574   2.388       .  S
O2560      C2561   1.279       .  A
C2561      C2795   1.439   1_556  S
O2562     Zr2571   2.460       .  S
O2562      C2564   1.293       .  A
O2563     Zr2575   2.425       .  S
O2563      C2564   1.285       .  A
C2564      C3178   1.498       .  S
O2565     Zr2568   2.417       .  S
O2565      C2567   1.283       .  A
O2566     Zr2574   2.417       .  S
O2566      C2567   1.283       .  A
C2567      C3188   1.465   1_556  S
Zr2568     O2576   2.371       .  S
Zr2568     O2577   2.331       .  S
Zr2568     O2580   2.339       .  S
Zr2568     O2578   2.372       .  S
Zr2568     O2569   2.434       .  S
O2569      H2589   0.990       .  S
O2569      H2594   0.990       .  S
O2570      H2590   0.990       .  S
Zr2571     O2577   2.373       .  S
Zr2571     O2576   2.358       .  S
Zr2571     O2581   2.344       .  S
Zr2571     O2579   2.374       .  S
Zr2571     O2572   2.433       .  S
Zr2571     O2573   2.432       .  S
O2572      H2588   0.990       .  S
O2573      H2587   0.990       .  S
O2573      H2597   0.990       .  S
Zr2574     O2577   2.383       .  S
Zr2574     O2579   2.382       .  S
Zr2574     O2580   2.380       .  S
Zr2575     O2576   2.393       .  S
Zr2575     O2578   2.360       .  S
Zr2575     O2581   2.379       .  S
O2576      H2584   0.966       .  S
O2579      H2583   0.966       .  S
O2580      H2585   0.965       .  S
O2598     Zr2610   2.339       .  S
O2598      C2600   1.263       .  A
O2599     Zr2636   2.523       .  S
O2599      C2600   1.313       .  A
O2601     Zr2613   2.346       .  S
O2601      C2603   1.269       .  A
O2602     Zr2637   2.438       .  S
O2602      C2603   1.288       .  A
C2603      C2733   1.428       .  S
O2604     Zr2613   2.380       .  S
O2604      C2606   1.275       .  A
O2605     Zr2636   2.512       .  S
O2605      C2606   1.303       .  A
C2606      C3158   1.507       .  S
O2607     Zr2610   2.374       .  S
O2607      C2609   1.273       .  A
O2608     Zr2637   2.479       .  S
O2608      C2609   1.295       .  A
C2609      C3151   1.483       .  S
Zr2610     O2616   2.357       .  S
Zr2610     O2617   2.349       .  S
Zr2610     O2640   2.343       .  S
Zr2610     O2642   2.375       .  S
Zr2610     O2611   2.438       .  S
O2611      H2654   0.991   1_556  S
O2612      H2653   0.989       .  S
O2612      H2657   0.990       .  S
Zr2613     O2617   2.370       .  S
Zr2613     O2616   2.330       .  S
Zr2613     O2641   2.337       .  S
Zr2613     O2643   2.359       .  S
Zr2613     O2614   2.432       .  S
Zr2613     O2615   2.434       .  S
O2614      H2655   0.990   1_556  S
O2614      H2658   0.990   1_556  S
O2615      H2648   0.990       .  S
O2616     Zr2636   2.362       .  S
O2617     Zr2637   2.387       .  S
O2617      H2644   0.965       .  S
O2618     Zr2630   2.382       .  S
O2618      C2620   1.275       .  A
O2619     Zr2637   2.407       .  S
O2619      C2620   1.283       .  A
O2621     Zr2633   2.369       .  S
O2621      C2623   1.274       .  A
O2622     Zr2636   2.455       .  S
O2622      C2623   1.293       .  A
C2623      C2938   1.442       .  S
O2624     Zr2633   2.418       .  S
O2624      C2626   1.283       .  A
O2625     Zr2637   2.492       .  S
O2625      C2626   1.299       .  A
C2626      C3141   1.494       .  S
O2627     Zr2630   2.395       .  S
O2627      C2629   1.277       .  A
O2628     Zr2636   2.539       .  S
O2628      C2629   1.311       .  A
C2629      C3171   1.505       .  S
Zr2630     O2638   2.368       .  S
Zr2630     O2639   2.337       .  S
Zr2630     O2642   2.368       .  S
Zr2630     O2640   2.369       .  S
Zr2630     O2631   2.436       .  S
O2631      H2651   0.990       .  S
O2631      H2656   0.990   1_565  S
O2632      H2652   0.987       .  S
Zr2633     O2639   2.359       .  S
Zr2633     O2638   2.350       .  S
Zr2633     O2643   2.348       .  S
Zr2633     O2641   2.369       .  S
Zr2633     O2634   2.433       .  S
Zr2633     O2635   2.435       .  S
O2634      H2650   0.990       .  S
O2635      H2649   0.990       .  S
O2635      H2659   0.990       .  S
Zr2636     O2639   2.388       .  S
Zr2636     O2641   2.412       .  S
Zr2636     O2642   2.411       .  S
Zr2637     O2638   2.397       .  S
Zr2637     O2640   2.408       .  S
Zr2637     O2643   2.398       .  S
O2638      H2646   0.965       .  S
O2641      H2645   0.966       .  S
O2642      H2647   0.966   1_565  S
C2660      C3101   1.579       .  S
C2660      C3108   1.569       .  S
C2660      C3118   1.595       .  S
C2660      C3128   1.599       .  S
C2661      C3061   1.585       .  S
C2661      C3068   1.601       .  S
C2661      C3081   1.580       .  S
C2661      C3091   1.605       .  S
C2662      C3018   1.589       .  S
C2662      C3031   1.587       .  S
C2662      C3041   1.576       .  S
C2662      C3048   1.601       .  S
O2664     Zr2701   2.394       .  S
O2664      C2665   1.285       .  A
O2666      C2668   1.266       .  A
O2667     Zr2702   2.433       .  S
O2670     Zr2701   2.435       .  S
O2670      C2671   1.287       .  A
O2673     Zr2702   2.490       .  S
O2673      C2674   1.298       .  A
Zr2675     O2681   2.377       .  S
Zr2675     O2682   2.338       .  S
Zr2675     O2705   2.341       .  S
Zr2675     O2707   2.383       .  S
Zr2675     O2677   2.422       .  S
O2676      H2719   0.990       .  S
O2677      H2718   0.987       .  S
Zr2678     O2682   2.372       .  S
Zr2678     O2681   2.335       .  S
Zr2678     O2706   2.330       .  S
Zr2678     O2708   2.380       .  S
O2679      H2720   0.990       .  S
O2679      H2723   0.990       .  S
O2680      H2713   0.990       .  S
O2681     Zr2701   2.367       .  S
O2682     Zr2702   2.376       .  S
O2683     Zr2695   2.375       .  S
O2683      C2685   1.275       .  A
O2684     Zr2702   2.426       .  S
O2684      C2685   1.292       .  A
C2685      C2859   1.438       .  S
O2686     Zr2698   2.416       .  S
O2686      C2688   1.286       .  A
O2687     Zr2701   2.382       .  S
O2687      C2688   1.277       .  A
O2689     Zr2698   2.461       .  S
O2689      C2691   1.292       .  A
O2690     Zr2702   2.461       .  S
O2690      C2691   1.294       .  A
O2692     Zr2695   2.432       .  S
O2692      C2694   1.286       .  A
O2693     Zr2701   2.443       .  S
O2693      C2694   1.288       .  A
C2694      C3098   1.481       .  S
Zr2695     O2703   2.375       .  S
Zr2695     O2704   2.349       .  S
Zr2695     O2707   2.353       .  S
Zr2695     O2705   2.388       .  S
Zr2695     O2696   2.437       .  S
Zr2695     O2697   2.437       .  S
O2696      H2716   0.990       .  S
O2696      H2721   0.990       .  S
O2697      H2717   0.990       .  S
Zr2698     O2704   2.380       .  S
Zr2698     O2703   2.349       .  S
Zr2698     O2708   2.354       .  S
Zr2698     O2706   2.369       .  S
Zr2698     O2699   2.432       .  S
O2699      H2715   0.990       .  S
O2700      H2714   0.990       .  S
O2700      H2724   0.990       .  S
Zr2701     O2704   2.380       .  S
Zr2701     O2706   2.383       .  S
Zr2701     O2707   2.384       .  S
Zr2702     O2703   2.390       .  S
Zr2702     O2705   2.384       .  S
Zr2702     O2708   2.388       .  S
O2703      H2711   0.965       .  S
O2707      H2712   0.966       .  S
O2726     Zr2763   2.412   1_556  S
O2726      C2727   1.279       .  A
O2728     Zr2740   2.478       .  S
O2728      C2730   1.294       .  A
O2729     Zr2764   2.416       .  S
O2729      C2730   1.286       .  A
C2730      C3058   1.488       .  S
O2731     Zr2740   2.436       .  S
O2731      C2733   1.291   1_554  A
O2732     Zr2763   2.372   1_556  S
O2732      C2733   1.273       .  A
O2735     Zr2764   2.404       .  S
O2735      C2736   1.285       .  A
Zr2737     O2743   2.321       .  S
Zr2737     O2744   2.378       .  S
Zr2737     O2767   2.368       .  S
Zr2737     O2769   2.336       .  S
Zr2737     O2738   2.426       .  S
O2738      H2781   0.989       .  S
O2739      H2780   0.990       .  S
O2739      H2784   0.990       .  S
Zr2740     O2744   2.359       .  S
Zr2740     O2743   2.369       .  S
Zr2740     O2768   2.379       .  S
Zr2740     O2770   2.347       .  S
Zr2740     O2741   2.436       .  S
Zr2740     O2742   2.430       .  S
O2741      H2782   0.990       .  S
O2741      H2785   0.990       .  S
O2742      H2775   0.990       .  S
O2743     Zr2763   2.382       .  S
O2744     Zr2764   2.395       .  S
O2744      H2771   0.966       .  S
O2746     Zr2764   2.469       .  S
O2746      C2747   1.294       .  A
O2748     Zr2760   2.418       .  S
O2748      C2750   1.283   1_554  A
O2749     Zr2763   2.436   1_556  S
O2749      C2750   1.285       .  A
C2750      C3111   1.468       .  S
O2751     Zr2760   2.373       .  S
O2751      C2753   1.275       .  A
O2752     Zr2764   2.405       .  S
O2752      C2753   1.286       .  A
C2753      C2862   1.431       .  S
O2755     Zr2763   2.391   1_556  S
O2755      C2756   1.284       .  A
Zr2757     O2765   2.345       .  S
Zr2757     O2766   2.390       .  S
Zr2757     O2769   2.387       .  S
Zr2757     O2767   2.322       .  S
Zr2757     O2758   2.435       .  S
O2758      H2778   0.989       .  S
O2759      H2779   0.990       .  S
Zr2760     O2766   2.351       .  S
Zr2760     O2765   2.381       .  S
Zr2760     O2770   2.371       .  S
Zr2760     O2768   2.352       .  S
Zr2760     O2761   2.428       .  S
Zr2760     O2762   2.439       .  S
O2761      H2777   0.990       .  S
O2762      H2776   0.990       .  S
O2762      H2786   0.990       .  S
Zr2763     O2766   2.376       .  S
Zr2763     O2768   2.387       .  S
Zr2763     O2769   2.379       .  S
Zr2764     O2765   2.373       .  S
Zr2764     O2767   2.357       .  S
Zr2764     O2770   2.376       .  S
O2765      H2773   0.965       .  S
O2768      H2772   0.966       .  S
O2788     Zr2825   2.499       .  S
O2788      C2789   1.299       .  A
O2790     Zr2802   2.435   1_556  S
O2790      C2792   1.284   1_556  A
O2791     Zr2826   2.512       .  S
O2791      C2792   1.306       .  A
C2792      C3121   1.502   1_554  S
O2793     Zr2802   2.417       .  S
O2793      C2795   1.276       .  A
O2794     Zr2825   2.408       .  S
O2794      C2795   1.279       .  A
O2797     Zr2826   2.529       .  S
O2797      C2798   1.313       .  A
Zr2799     O2805   2.331       .  S
Zr2799     O2806   2.366       .  S
Zr2799     O2829   2.360       .  S
Zr2799     O2831   2.343       .  S
Zr2799     O2800   2.435   1_554  S
O2800      H2843   0.991       .  S
O2801      H2842   0.988       .  S
O2801      H2846   0.990       .  S
Zr2802     O2806   2.362       .  S
Zr2802     O2805   2.359       .  S
Zr2802     O2830   2.376       .  S
Zr2802     O2832   2.370       .  S
Zr2802     O2803   2.437   1_554  S
Zr2802     O2804   2.437       .  S
O2803      H2844   0.990       .  S
O2803      H2847   0.990       .  S
O2804      H2837   0.990       .  S
O2805     Zr2825   2.385       .  S
O2806     Zr2826   2.395       .  S
O2806      H2833   0.963       .  S
O2808     Zr2826   2.561       .  S
O2808      C2809   1.312       .  A
O2810     Zr2822   2.410       .  S
O2810      C2812   1.281       .  A
O2811     Zr2825   2.508       .  S
O2811      C2812   1.301       .  A
C2812      C3021   1.521       .  S
O2813     Zr2822   2.383       .  S
O2813      C2815   1.276       .  A
O2814     Zr2826   2.488       .  S
O2814      C2815   1.300       .  A
C2815      C2879   1.461       .  S
O2817     Zr2825   2.424       .  S
O2817      C2818   1.286       .  A
Zr2819     O2827   2.339       .  S
Zr2819     O2828   2.360       .  S
Zr2819     O2831   2.360       .  S
Zr2819     O2829   2.367       .  S
Zr2819     O2820   2.438       .  S
O2820      H2840   0.990       .  S
O2821      H2841   0.990       .  S
Zr2822     O2828   2.351       .  S
Zr2822     O2827   2.360       .  S
Zr2822     O2832   2.371       .  S
Zr2822     O2830   2.346       .  S
Zr2822     O2823   2.434       .  S
Zr2822     O2824   2.426       .  S
O2823      H2839   0.991       .  S
O2824      H2838   0.989       .  S
O2824      H2848   0.990       .  S
Zr2825     O2828   2.383       .  S
Zr2825     O2830   2.419       .  S
Zr2825     O2831   2.404       .  S
Zr2826     O2827   2.399       .  S
Zr2826     O2829   2.406       .  S
Zr2826     O2832   2.424       .  S
O2827      H2835   0.964       .  S
O2830      H2834   0.966       .  S
C2849      C3011   1.609       .  S
C2849      C3161   1.607       .  S
C2849      C3198   1.589       .  S
C2849      C3221   1.603       .  S
C2850      C2998   1.604       .  S
C2850      C3138   1.584       .  S
C2850      C3211   1.572       .  S
C2850      C3241   1.588       .  S
O2851     Zr2863   2.449       .  S
O2851      C2853   1.287       .  A
O2852     Zr2889   2.514       .  S
O2852      C2853   1.304       .  A
C2853      C3001   1.520       .  S
O2854     Zr2866   2.452       .  S
O2854      C2856   1.288       .  A
O2855     Zr2890   2.458       .  S
O2855      C2856   1.292       .  A
C2856      C2981   1.500       .  S
O2857     Zr2866   2.366       .  S
O2857      C2859   1.274       .  A
O2858     Zr2889   2.430       .  S
O2858      C2859   1.292       .  A
O2860     Zr2863   2.372       .  S
O2860      C2862   1.275       .  A
O2861     Zr2890   2.408       .  S
O2861      C2862   1.287       .  A
Zr2863     O2869   2.340       .  S
Zr2863     O2870   2.392       .  S
Zr2863     O2893   2.386       .  S
Zr2863     O2895   2.356       .  S
Zr2863     O2864   2.434       .  S
Zr2863     O2865   2.438       .  S
O2864      H2907   0.990       .  S
O2865      H2906   0.990       .  S
O2865      H2910   0.990       .  S
Zr2866     O2870   2.345       .  S
Zr2866     O2869   2.384       .  S
Zr2866     O2894   2.389       .  S
Zr2866     O2896   2.339       .  S
Zr2866     O2867   2.438       .  S
Zr2866     O2868   2.431       .  S
O2867      H2908   0.990       .  S
O2867      H2911   0.990       .  S
O2868      H2901   0.990       .  S
O2869     Zr2889   2.378       .  S
O2870     Zr2890   2.384       .  S
O2870      H2897   0.966       .  S
O2871     Zr2883   2.444       .  S
O2871      C2873   1.286       .  A
O2872     Zr2890   2.469       .  S
O2872      C2873   1.294       .  A
C2873      C3008   1.492       .  S
O2874     Zr2886   2.514       .  S
O2874      C2876   1.303       .  A
O2875     Zr2889   2.474       .  S
O2875      C2876   1.297       .  A
C2876      C2988   1.528       .  S
O2877     Zr2886   2.467       .  S
O2877      C2879   1.296       .  A
O2878     Zr2890   2.414       .  S
O2878      C2879   1.283       .  A
O2880     Zr2883   2.391       .  S
O2880      C2882   1.278       .  A
O2881     Zr2889   2.450       .  S
O2881      C2882   1.295       .  A
C2882      C2935   1.458       .  S
Zr2883     O2891   2.361       .  S
Zr2883     O2892   2.380       .  S
Zr2883     O2895   2.393       .  S
Zr2883     O2893   2.355       .  S
Zr2883     O2884   2.437       .  S
Zr2883     O2885   2.431       .  S
O2884      H2904   0.990       .  S
O2884      H2909   0.990       .  S
O2885      H2905   0.990       .  S
Zr2886     O2892   2.363       .  S
Zr2886     O2891   2.393       .  S
Zr2886     O2896   2.379       .  S
Zr2886     O2894   2.364       .  S
Zr2886     O2887   2.434       .  S
Zr2886     O2888   2.436       .  S
O2887      H2903   0.990       .  S
O2888      H2902   0.990       .  S
O2888      H2912   0.990       .  S
Zr2889     O2892   2.387       .  S
Zr2889     O2894   2.409       .  S
Zr2889     O2895   2.386       .  S
Zr2890     O2891   2.394       .  S
Zr2890     O2893   2.384       .  S
Zr2890     O2896   2.386       .  S
O2891      H2899   0.966       .  S
O2894      H2898   0.966       .  S
O2895      H2900   0.966       .  S
O2913     Zr2925   2.361       .  S
O2913      C2915   1.273       .  A
O2914     Zr2951   2.402       .  S
O2914      C2915   1.286       .  A
O2916     Zr2928   2.374       .  S
O2916      C2918   1.275       .  A
O2917     Zr2952   2.445       .  S
O2917      C2918   1.295       .  A
O2919     Zr2928   2.469       .  S
O2919      C2921   1.292       .  A
O2920     Zr2951   2.461       .  S
O2920      C2921   1.292       .  A
C2921      C3281   1.501       .  S
O2922     Zr2925   2.452       .  S
O2922      C2924   1.288       .  A
O2923     Zr2952   2.506       .  S
O2923      C2924   1.302       .  A
C2924      C3051   1.515       .  S
Zr2925     O2931   2.394       .  S
Zr2925     O2932   2.342       .  S
Zr2925     O2955   2.343       .  S
Zr2925     O2957   2.387       .  S
Zr2925     O2926   2.434       .  S
Zr2925     O2927   2.434       .  S
O2926      H2969   0.990       .  S
O2927      H2968   0.990       .  S
O2927      H2972   0.990       .  S
Zr2928     O2932   2.390       .  S
Zr2928     O2931   2.345       .  S
Zr2928     O2956   2.336       .  S
Zr2928     O2958   2.395       .  S
Zr2928     O2929   2.436       .  S
Zr2928     O2930   2.435       .  S
O2929      H2970   0.990       .  S
O2929      H2973   0.990       .  S
O2930      H2963   0.990       .  S
O2931     Zr2951   2.383       .  S
O2932     Zr2952   2.386       .  S
O2932      H2959   0.965       .  S
O2933     Zr2945   2.392       .  S
O2933      C2935   1.279       .  A
O2934     Zr2952   2.456       .  S
O2934      C2935   1.297       .  A
O2936     Zr2948   2.440       .  S
O2936      C2938   1.291       .  A
O2937     Zr2951   2.405       .  S
O2937      C2938   1.281       .  A
O2939     Zr2948   2.490       .  S
O2939      C2941   1.297       .  A
O2940     Zr2952   2.483       .  S
O2940      C2941   1.298       .  A
C2941      C3088   1.520       .  S
O2942     Zr2945   2.447       .  S
O2942      C2944   1.289       .  A
O2943     Zr2951   2.496       .  S
O2943      C2944   1.298       .  A
C2944      C3131   1.528       .  S
Zr2945     O2953   2.378       .  S
Zr2945     O2954   2.353       .  S
Zr2945     O2957   2.353       .  S
Zr2945     O2955   2.396       .  S
Zr2945     O2946   2.437       .  S
Zr2945     O2947   2.433       .  S
O2946      H2966   0.990       .  S
O2946      H2971   0.990       .  S
O2947      H2967   0.990       .  S
Zr2948     O2954   2.387       .  S
Zr2948     O2953   2.349       .  S
Zr2948     O2958   2.361       .  S
Zr2948     O2956   2.383       .  S
Zr2948     O2949   2.433       .  S
Zr2948     O2950   2.423       .  S
O2949      H2965   0.990       .  S
O2950      H2964   0.990       .  S
O2950      H2974   0.990       .  S
Zr2951     O2954   2.391       .  S
Zr2951     O2956   2.395       .  S
Zr2951     O2957   2.392       .  S
Zr2952     O2953   2.394       .  S
Zr2952     O2955   2.388       .  S
Zr2952     O2958   2.400       .  S
O2953      H2961   0.965       .  S
O2956      H2960   0.965       .  S
O2957      H2962   0.966       .  S
C2975      C2991   1.602       .  S
C2975      C3168   1.589       .  S
C2975      C3181   1.590       .  S
C2975      C3251   1.597       .  S
C2976      C2978   1.621       .  S
C2976      C3148   1.596       .  S
C2976      C3191   1.586       .  S
C2976      C3231   1.590       .  S
C2977      C2978   1.442       .  A
C2977      C2982   1.414       .  A
C2977      F2984   1.355       .  S
C2978      C2979   1.431       .  A
C2979      C2980   1.405       .  A
C2979      F2986   1.340       .  S
C2980      C2981   1.396       .  A
C2980      F2985   1.359       .  S
C2981      C2982   1.397       .  A
C2982      F2983   1.355       .  S
C2987      C2988   1.414       .  A
C2987      C2992   1.426       .  A
C2987      F2994   1.355       .  S
C2988      C2989   1.407       .  A
C2989      C2990   1.417       .  A
C2989      F2996   1.358       .  S
C2990      C2991   1.429       .  A
C2990      F2995   1.358       .  S
C2991      C2992   1.426       .  A
C2992      F2993   1.354       .  S
C2997      C2998   1.423       .  A
C2997      C3002   1.419       .  A
C2997      F3004   1.356       .  S
C2998      C2999   1.436       .  A
C2999      C3000   1.419       .  A
C2999      F3006   1.355       .  S
C3000      C3001   1.404       .  A
C3000      F3005   1.358       .  S
C3001      C3002   1.413       .  A
C3002      F3003   1.358       .  S
C3007      C3008   1.400       .  A
C3007      C3012   1.413       .  A
C3007      F3014   1.357       .  S
C3008      C3009   1.393       .  A
C3009      C3010   1.406       .  A
C3009      F3016   1.356       .  S
C3010      C3011   1.435       .  A
C3010      F3015   1.350       .  S
C3011      C3012   1.436       .  A
C3012      F3013   1.359       .  S
C3017      C3018   1.422       .  A
C3017      C3022   1.396       .  A
C3017      F3024   1.356       .  S
C3018      C3019   1.431       .  A
C3019      C3020   1.422       .  A
C3019      F3026   1.357       .  S
C3020      C3021   1.409       .  A
C3020      F3025   1.357       .  S
C3021      C3022   1.416       .  A
C3022      F3023   1.359       .  S
C3027      C3028   1.406       .  A
C3027      C3032   1.407       .  A
C3027      F3034   1.358       .  S
C3029      F3036   1.359       .  S
C3030      C3031   1.438       .  A
C3030      F3035   1.355       .  S
C3031      C3032   1.421       .  A
C3032      F3033   1.356       .  S
C3037      C3038   1.406       .  A
C3037      C3042   1.416       .  A
C3038      C3039   1.404       .  A
C3039      C3040   1.399       .  A
C3039      F3046   1.359       .  S
C3040      C3041   1.422       .  A
C3040      F3045   1.357       .  S
C3041      C3042   1.426       .  A
C3042      F3043   1.355       .  S
C3047      C3048   1.426       .  A
C3047      C3052   1.419       .  A
C3047      F3054   1.348       .  S
C3048      C3049   1.426       .  A
C3049      C3050   1.416       .  A
C3049      F3056   1.357       .  S
C3050      C3051   1.409       .  A
C3050      F3055   1.358       .  S
C3051      C3052   1.407       .  A
C3052      F3053   1.357       .  S
C3057      C3058   1.396       .  A
C3057      C3062   1.397       .  A
C3057      F3064   1.359       .  S
C3058      C3059   1.403       .  A
C3059      C3060   1.410       .  A
C3059      F3066   1.357       .  S
C3060      C3061   1.427       .  A
C3060      F3065   1.357       .  S
C3061      C3062   1.435       .  A
C3062      F3063   1.354       .  S
C3067      C3068   1.438       .  A
C3067      C3072   1.430       .  A
C3067      F3074   1.357       .  S
C3068      C3069   1.418       .  A
C3069      C3070   1.397       .  A
C3069      F3076   1.354       .  S
C3070      C3071   1.425       .  A
C3070      F3075   1.358       .  S
C3071      C3072   1.410       .  A
C3072      F3073   1.357   1_565  S
C3077      F3084   1.356       .  S
C3078      C3079   1.401       .  A
C3079      C3080   1.403       .  A
C3079      F3086   1.358       .  S
C3080      C3081   1.429       .  A
C3080      F3085   1.358       .  S
C3081      C3082   1.422       .  A
C3087      C3088   1.406       .  A
C3087      C3092   1.415       .  A
C3087      F3094   1.358       .  S
C3088      C3089   1.409       .  A
C3089      C3090   1.422       .  A
C3089      F3096   1.356       .  S
C3090      C3091   1.429       .  A
C3090      F3095   1.354       .  S
C3091      C3092   1.430       .  A
C3092      F3093   1.358       .  S
C3097      C3098   1.395       .  A
C3097      C3102   1.392       .  A
C3097      F3104   1.359       .  S
C3098      C3099   1.404       .  A
C3099      C3100   1.413       .  A
C3099      F3106   1.357       .  S
C3100      C3101   1.423       .  A
C3100      F3105   1.351       .  S
C3101      C3102   1.429       .  A
C3102      F3103   1.357       .  S
C3107      C3108   1.423       .  A
C3107      C3112   1.410       .  A
C3107      F3114   1.353       .  S
C3108      C3109   1.430       .  A
C3109      C3110   1.386       .  A
C3109      F3116   1.357       .  S
C3110      C3111   1.391       .  A
C3110      F3115   1.359       .  S
C3111      C3112   1.403       .  A
C3112      F3113   1.356       .  S
C3117      C3118   1.418       .  A
C3117      C3122   1.417       .  A
C3117      F3124   1.357       .  S
C3118      C3119   1.439       .  A
C3119      C3120   1.407       .  A
C3119      F3126   1.356       .  S
C3120      C3121   1.396       .  A
C3120      F3125   1.358   1_556  S
C3121      C3122   1.414       .  A
C3122      F3123   1.358       .  S
C3127      C3128   1.429       .  A
C3127      C3132   1.399       .  A
C3127      F3134   1.357       .  S
C3128      C3129   1.424       .  A
C3129      C3130   1.429       .  A
C3129      F3136   1.357       .  S
C3130      C3131   1.417       .  A
C3130      F3135   1.357       .  S
C3131      C3132   1.411       .  A
C3132      F3133   1.359       .  S
C3137      C3138   1.430       .  A
C3137      C3142   1.416       .  A
C3137      F3144   1.353       .  S
C3138      C3139   1.425       .  A
C3139      C3140   1.398       .  A
C3139      F3146   1.357       .  S
C3140      C3141   1.402       .  A
C3140      F3145   1.359       .  S
C3141      C3142   1.405       .  A
C3142      F3143   1.357       .  S
C3147      C3152   1.408   1_554  A
C3147      F3154   1.352       .  S
C3148      C3149   1.421       .  A
C3149      C3150   1.393   1_554  A
C3149      F3156   1.344       .  S
C3150      F3155   1.360       .  S
C3151      C3152   1.394       .  A
C3152      F3153   1.358       .  S
C3157      C3158   1.397       .  A
C3157      C3162   1.418   1_556  A
C3157      F3164   1.357       .  S
C3158      C3159   1.411   1_556  A
C3159      C3160   1.394       .  A
C3159      F3166   1.359   1_554  S
C3160      C3161   1.427       .  A
C3160      F3165   1.358       .  S
C3161      C3162   1.440       .  A
C3162      F3163   1.346       .  S
C3167      C3168   1.426       .  A
C3167      C3172   1.404       .  A
C3167      F3174   1.356       .  S
C3169      C3170   1.428       .  A
C3169      F3176   1.352       .  S
C3170      C3171   1.412       .  A
C3170      F3175   1.355       .  S
C3172      F3173   1.359       .  S
C3177      C3178   1.395       .  A
C3177      C3182   1.385       .  A
C3177      F3184   1.360       .  S
C3178      C3179   1.413       .  A
C3179      C3180   1.420       .  A
C3179      F3186   1.357       .  S
C3180      C3181   1.422       .  A
C3180      F3185   1.356       .  S
C3181      C3182   1.438       .  A
C3182      F3183   1.354       .  S
C3187      C3188   1.396   1_455  A
C3187      F3194   1.354       .  S
C3188      C3189   1.390       .  A
C3189      F3196   1.360   1_554  S
C3190      C3191   1.426       .  A
C3190      F3195   1.347       .  S
C3191      C3192   1.429       .  A
C3192      F3193   1.358       .  S
C3197      C3198   1.436       .  A
C3197      C3202   1.409       .  A
C3197      F3204   1.358       .  S
C3198      C3199   1.421       .  A
C3199      C3200   1.387       .  A
C3199      F3206   1.345       .  S
C3200      C3201   1.401       .  A
C3200      F3205   1.360   1_554  S
C3201      C3202   1.400       .  A
C3202      F3203   1.357       .  S
C3207      C3208   1.394       .  A
C3207      C3212   1.391   1_655  A
C3207      F3214   1.359       .  S
C3209      C3210   1.413       .  A
C3209      F3216   1.356       .  S
C3210      C3211   1.418       .  A
C3210      F3215   1.353       .  S
C3212      F3213   1.357       .  S
C3217      C3218   1.401       .  A
C3217      C3222   1.397       .  A
C3217      F3224   1.359       .  S
C3218      C3219   1.400       .  A
C3219      C3220   1.409       .  A
C3219      F3226   1.358       .  S
C3220      C3221   1.440       .  A
C3220      F3225   1.359       .  S
C3221      C3222   1.427       .  A
C3222      F3223   1.344       .  S
C3227      C3232   1.389   1_655  A
C3227      F3234   1.360       .  S
C3229      C3230   1.403       .  A
C3229      F3236   1.358       .  S
C3230      F3235   1.356       .  S
C3232      F3233   1.349       .  S
C3237      C3238   1.391       .  A
C3237      C3242   1.398   1_655  A
C3237      F3244   1.359       .  S
C3239      C3240   1.415       .  A
C3239      F3246   1.358       .  S
C3240      C3241   1.418       .  A
C3240      F3245   1.357       .  S
C3242      F3243   1.357   1_455  S
C3247      C3252   1.402       .  A
C3247      F3254   1.359       .  S
C3248      C3249   1.412   1_545  A
C3249      C3250   1.418   1_565  A
C3249      F3256   1.357       .  S
C3250      F3255   1.354   1_545  S
C3251      C3252   1.433       .  A
C3252      F3253   1.356       .  S
C3257      C3258   1.418       .  A
C3257      C3262   1.394       .  A
C3257      F3264   1.358       .  S
C3258      C3259   1.422       .  A
C3260      F3265   1.357       .  S
C3261      C3262   1.407       .  A
C3262      F3263   1.359   1_556  S
C3267      C3268   1.424       .  A
C3267      F3274   1.354       .  S
C3268      C3269   1.428       .  A
C3270      F3275   1.358   1_565  S
C3271      C3272   1.408       .  A
C3272      F3273   1.359       .  S
C3277      C3278   1.429       .  A
C3277      C3282   1.410       .  A
C3277      F3284   1.357       .  S
C3278      C3279   1.426       .  A
C3279      C3280   1.415       .  A
C3279      F3286   1.353       .  S
C3280      C3281   1.403       .  A
C3280      F3285   1.355       .  S
C3281      C3282   1.403       .  A
C3282      F3283   1.358       .  S
C3287      C3288   1.433       .  A
C3287      C3292   1.372       .  A
C3287      F3294   1.356       .  S
C3288      C3289   1.421       .  A
C3289      C3290   1.415       .  A
C3289      F3296   1.358       .  S
C3290      C3291   1.411       .  A
C3291      C3292   1.396       .  A
C3292      F3293   1.361   1_556  S
