geometry optimzed in LAMMPS
_audit_creation_date              2020-11-30 
_audit_creation_method            'lammps2cif' 
_symmetry_space_group_name_H-M    'P1' 
_symmetry_Int_Tables_number       1 
_symmetry_cell_setting            triclinic 
loop_ 
_symmetry_equiv_pos_as_xyz 
  x,y,z 
_cell_length_a                    24.99579535 
_cell_length_b                    24.972507164000337 
_cell_length_c                    24.946102662012102 
_cell_angle_alpha                 90.25667758743573 
_cell_angle_beta                  91.7880481133334 
_cell_angle_gamma                 91.47787488709547 
loop_ 
_atom_site_label 
_atom_site_type_symbol 
_atom_site_fract_x 
_atom_site_fract_y 
_atom_site_fract_z 
_atom_site_charge 
C1          C  0.33264676  0.99665917  0.03889463     0.04100
C2          C  0.31225739  0.96910094  0.08236104    -0.12000
C3          C  0.28278622  0.92131402  0.07536158     0.01600
C4          C  0.27455634  0.89935832  0.02311392    -0.10600
C5          C  0.29467539  0.92747579  0.97831483     0.04100
C6          C  0.32271532  0.97632660  0.98687938    -0.10000
H7          H  0.31983452  0.98496896  0.12255411     0.09700
H8          H  0.25255868  0.86173852  0.01739714     0.07200
H9          H  0.33595271  0.99902280  0.95265242     0.07100
C10         C  0.59470265  0.28378989  0.98227767     0.04100
C11         C  0.61692942  0.30292655  0.03109176    -0.12000
C12         C  0.67206889  0.31440717  0.03768166     0.01600
C13         C  0.70331474  0.31961035  0.99113532    -0.11800
C14         C  0.67903337  0.30847670  0.93976448     0.04100
C15         C  0.62531341  0.29079944  0.93665418    -0.10000
H16         H  0.59257894  0.30249626  0.06617006     0.09700
H17         H  0.74569435  0.32945987  0.99491808     0.07200
H18         H  0.60850864  0.27918880  0.89786109     0.07100
C19         C  0.75122759  0.06158855  0.36591635     0.04100
C20         C  0.72845605  0.01699190  0.33966581    -0.12000
C21         C  0.71701271  0.01940443  0.28449426     0.01600
C22         C  0.70967670  0.06987435  0.25972024    -0.10600
C23         C  0.71959626  0.11714939  0.29058823     0.04100
C24         C  0.74167719  0.11173514  0.34319859    -0.10000
H25         H  0.73226484  0.97807012  0.35840320     0.09700
H26         H  0.70044767  0.07232289  0.21711963     0.07200
H27         H  0.75683140  0.14694836  0.36444563     0.07100
C28         C  0.18311690  0.10812998  0.65371544     0.04100
C29         C  0.20891908  0.06793319  0.68225922    -0.12000
C30         C  0.23478440  0.07826051  0.73174437     0.01600
C31         C  0.24191896  0.13174905  0.75028225    -0.10600
C32         C  0.21999773  0.17413905  0.71957409     0.04100
C33         C  0.18914813  0.16102848  0.67259204    -0.10000
H34         H  0.20598606  0.02699625  0.66747768     0.09700
H35         H  0.26372889  0.14006793  0.78769698     0.07200
H36         H  0.16738312  0.19203387  0.65189648     0.07100
C37         C  0.01783218  0.74735937  0.16585325     0.04100
C38         C  0.96511301  0.76389598  0.17129646    -0.12000
C39         C  0.95242028  0.80536608  0.20734797     0.01600
C40         C  0.99549586  0.83318588  0.23515611    -0.10600
C41         C  0.04870867  0.81567215  0.22949649     0.04100
C42         C  0.05801786  0.77062368  0.19838385    -0.10000
H43         H  0.93399508  0.74494004  0.14607055     0.09700
H44         H  0.98785987  0.86705623  0.26079470     0.07200
H45         H  0.09844572  0.75609438  0.19608943     0.07100
C46         C  0.00046453  0.26182455  0.83507878     0.04100
C47         C  0.04363961  0.28903941  0.81270246    -0.12000
C48         C  0.03633797  0.33450857  0.78135060     0.01600
C49         C  0.98410543  0.35033797  0.76691692    -0.10600
C50         C  0.93969660  0.32161162  0.78732331     0.04100
C51         C  0.94838525  0.27853315  0.82237889    -0.10000
H52         H  0.08403541  0.27635288  0.82224573     0.09700
H53         H  0.97811601  0.38443691  0.74093970     0.07200
H54         H  0.91440623  0.25865595  0.84041693     0.07100
C55         C  0.72377416  0.96512069  0.97794684     0.04100
C56         C  0.72293045  0.93699056  0.02591101    -0.12000
C57         C  0.74192643  0.88453874  0.02964004     0.01600
C58         C  0.76224063  0.86049207  0.98301328    -0.10600
C59         C  0.76481360  0.89037036  0.93474189     0.04100
C60         C  0.74674546  0.94281549  0.93349851    -0.10000
H61         H  0.70470350  0.95567663  0.05988587     0.09700
H62         H  0.77431785  0.81916658  0.98376652     0.07200
H63         H  0.74522451  0.96461568  0.89593566     0.07100
C64         C  0.34240040  0.35128302  0.02216891     0.04100
C65         C  0.31153715  0.35118738  0.06792704    -0.12000
C66         C  0.25773906  0.36582488  0.06648452     0.01600
C67         C  0.23344532  0.37992995  0.01618182    -0.10600
C68         C  0.26535223  0.38185543  0.96971907     0.04100
C69         C  0.32072287  0.37401348  0.97577084    -0.10000
H70         H  0.32841486  0.33587250  0.10509654     0.09700
H71         H  0.19075638  0.38598145  0.01276784     0.07200
H72         H  0.34559981  0.37882466  0.94139065     0.07100
C73         C  0.82494524  0.08974128  0.61855622     0.04100
C74         C  0.81827106  0.04254622  0.64743829    -0.12000
C75         C  0.78231081  0.03824451  0.68873590     0.01600
C76         C  0.75608213  0.08467492  0.70666453    -0.10600
C77         C  0.76509003  0.13434203  0.68010720     0.04100
C78         C  0.79574426  0.13428560  0.63334823    -0.10000
H79         H  0.84224043  0.00823751  0.63871045     0.09700
H80         H  0.73107098  0.08254798  0.74127671     0.07200
H81         H  0.80057323  0.17076623  0.61051627     0.07100
C82         C  0.13243804  0.10497342  0.36400300     0.04100
C83         C  0.15554118  0.15572068  0.35600012    -0.12000
C84         C  0.19642021  0.16407231  0.31918193     0.01600
C85         C  0.22029155  0.11871957  0.29621162    -0.10600
C86         C  0.20044512  0.06665560  0.30851251     0.04100
C87         C  0.15516618  0.06087224  0.33974637    -0.10000
H88         H  0.13800147  0.18966944  0.37534149     0.09700
H89         H  0.25288581  0.12379257  0.26894455     0.07200
H90         H  0.13688968  0.02137492  0.34395736     0.07100
C91         C  0.02869646  0.74082751  0.82046580     0.04100
C92         C  0.07477156  0.77363786  0.81634688    -0.12000
C93         C  0.07405493  0.82138241  0.78677765     0.01600
C94         C  0.02464663  0.83893288  0.76419703    -0.10600
C95         C  0.97791141  0.80570293  0.76790533     0.04100
C96         C  0.98202508  0.75560604  0.79265601    -0.10000
H97         H  0.11147230  0.76304874  0.83748498     0.09700
H98         H  0.02290281  0.87669329  0.74313828     0.07200
H99         H  0.94661505  0.72980025  0.79487093     0.07100
C100        C  0.97902558  0.23784417  0.18488149     0.04100
C101        C  0.92992725  0.25097764  0.20611027    -0.12000
C102        C  0.92318322  0.30031568  0.23112699     0.01600
C103        C  0.96822885  0.33399746  0.24338136    -0.10600
C104        C  0.01925483  0.31856525  0.22709660     0.04100
C105        C  0.02369049  0.27180638  0.19625247    -0.10000
H106        H  0.89511928  0.22488499  0.19855243     0.09700
H107        H  0.96370730  0.37112704  0.26516933     0.07200
H108        H  0.06216221  0.26293699  0.17999688     0.07100
C109        C  0.31457586  0.61476942  0.88141899     0.04100
C110        C  0.31560853  0.66575271  0.85866062    -0.12000
C111        C  0.28590528  0.67697105  0.81156920     0.01600
C112        C  0.25772328  0.63364426  0.78487921    -0.10600
C113        C  0.25553442  0.58244743  0.80968903     0.04100
C114        C  0.27925402  0.57586399  0.86038815    -0.10000
H115        H  0.34328807  0.69583404  0.87546953     0.09700
H116        H  0.23873521  0.63931992  0.74579158     0.07200
H117        H  0.27886994  0.53639328  0.87857308     0.07100
C118        C  0.30858800  0.60968494  0.16928384     0.04100
C119        C  0.28984264  0.65914036  0.18394450    -0.12000
C120        C  0.25600669  0.66483933  0.22759796     0.01600
C121        C  0.23313493  0.61763614  0.25030549    -0.10600
C122        C  0.24724090  0.56666599  0.22994936     0.04100
C123        C  0.28580015  0.56365004  0.19071887    -0.10000
H124        H  0.30693016  0.69379283  0.16411762     0.09700
H125        H  0.20663017  0.62031271  0.28366249     0.07200
H126        H  0.30042995  0.52489837  0.17895529     0.07100
C127        C  0.15169981  0.50577050  0.51605953     0.04100
C128        C  0.17819317  0.48792814  0.56286482    -0.12000
C129        C  0.20929418  0.44221143  0.56257111     0.01600
C130        C  0.21776717  0.41569307  0.51375600    -0.10600
C131        C  0.19405128  0.43475954  0.46578030     0.04100
C132        C  0.15929234  0.47810757  0.46766327    -0.10000
H133        H  0.17291780  0.50844300  0.60065926     0.09700
H134        H  0.24170939  0.38015024  0.51323959     0.07200
H135        H  0.13838723  0.49011061  0.43119149     0.07100
O136        O  0.25892411  0.44212868  0.64575097    -0.77500
C137        C  0.24138361  0.53092136  0.78305277     0.83500
O138        O  0.35109019  0.33159491  0.78454129    -0.78600
O139        O  0.21276045  0.41405717  0.89292207    -0.80100
O140        O  0.11050533  0.34318341  0.72705956    -0.79900
O141        O  0.19463401  0.37977943  0.63087601    -0.78500
Zn142      Zn  0.28443893  0.43231254  0.72432961     1.55700
O143        O  0.10870563  0.39515731  0.80036637    -0.79900
Cd144      Cd  0.18929367  0.34551222  0.70527274     1.59700
Cd145      Cd  0.27105939  0.32732181  0.80233998     1.59600
O146        O  0.20905472  0.26619025  0.70062007    -0.79900
O147        O  0.23428262  0.38415965  0.76057520    -1.90400
Cd148      Cd  0.18779809  0.42473654  0.81083580     1.59900
O149        O  0.24612382  0.24773427  0.78027666    -0.79900
O150        O  0.19788932  0.50685361  0.79598803    -0.78500
C151        C  0.37977385  0.35862633  0.75242206     0.84000
C152        C  0.22348247  0.41891196  0.61504015     0.83700
O153        O  0.27875697  0.50647510  0.75958170    -0.77500
C154        C  0.08616070  0.36231143  0.76658792     0.84500
O155        O  0.36148691  0.39946095  0.72731816    -0.77600
C156        C  0.22589259  0.23224213  0.73483734     0.84600
C157        C  0.24478611  0.37964672  0.91271568     0.84900
O158        O  0.26563713  0.34438468  0.88310491    -0.80000
C159        C  0.83641533  0.41124961  0.48580838     0.04100
C160        C  0.81063841  0.41197849  0.53500382    -0.12000
C161        C  0.76010179  0.38694673  0.54089454     0.01600
C162        C  0.73099503  0.36785461  0.49475193    -0.10600
C163        C  0.75576368  0.36989443  0.44463835     0.04100
C164        C  0.80922259  0.38701993  0.44214142    -0.10000
H165        H  0.83004875  0.43081878  0.56982493     0.09700
H166        H  0.69183815  0.34885332  0.49823593     0.07200
H167        H  0.82915994  0.38295008  0.40444716     0.07100
C168        C  0.45230292  0.25089128  0.68438994     0.04100
C169        C  0.41424275  0.28159093  0.70857985    -0.12000
C170        C  0.42761092  0.33056204  0.73351728     0.01600
C171        C  0.48260766  0.34694954  0.73903522    -0.10600
C172        C  0.52273715  0.31299872  0.71890998     0.04100
C173        C  0.50648196  0.26623373  0.69072839    -0.10000
H174        H  0.37246734  0.26868397  0.70468610     0.09700
H175        H  0.49392237  0.38380292  0.75992485     0.07200
H176        H  0.53649814  0.24321135  0.67120416     0.07100
O177        O  0.70028475  0.46190819  0.73131128    -0.77500
C178        C  0.74696669  0.37151172  0.59622198     0.83500
O179        O  0.60922073  0.28358436  0.74574057    -0.78600
O180        O  0.77801011  0.22819295  0.68330244    -0.80100
O181        O  0.85300028  0.35188287  0.80732866    -0.79900
O182        O  0.76490540  0.45416398  0.79481951    -0.78500
Zn183      Zn  0.68600710  0.38610010  0.70046110     1.55700
O184        O  0.86614143  0.32021336  0.72527473    -0.79900
Cd185      Cd  0.77210335  0.37195223  0.80355174     1.59700
Cd186      Cd  0.69007353  0.27191754  0.76757418     1.59600
O187        O  0.73711803  0.35124884  0.87653959    -0.79900
O188        O  0.73229600  0.33575641  0.74123255    -1.90400
Cd189      Cd  0.78828161  0.30913568  0.69448850     1.59900
O190        O  0.69142588  0.27671112  0.85137891    -0.79900
O191        O  0.78177311  0.34367859  0.62082890    -0.78500
C192        C  0.58200937  0.32219642  0.72627766     0.84000
C193        C  0.73256211  0.48244984  0.76703450     0.83700
O194        O  0.70544159  0.38819239  0.61937496    -0.77500
C195        C  0.88372107  0.33362232  0.77199847     0.84500
O196        O  0.60502073  0.36506915  0.70928203    -0.77600
C197        C  0.70617248  0.31151863  0.88726013     0.84600
C198        C  0.75127835  0.18859475  0.70169560     0.84900
O199        O  0.71607806  0.19591322  0.73719448    -0.80000
C200        C  0.13843701  0.85861090  0.54004406     0.04100
C201        C  0.15986483  0.85309511  0.48896928    -0.12000
C202        C  0.21280084  0.87006617  0.47872136     0.01600
C203        C  0.24612405  0.88791116  0.52261115    -0.10600
C204        C  0.22384019  0.89334026  0.57378879     0.04100
C205        C  0.16855417  0.88668720  0.57913943    -0.10000
H206        H  0.13683469  0.83155481  0.45805964     0.09700
H207        H  0.28875929  0.89390928  0.51781259     0.07200
H208        H  0.15199544  0.89054253  0.61868913     0.07100
O209        O  0.24691251  0.92698800  0.89421736    -0.77500
C210        C  0.25288016  0.02993138  0.75997869     0.83500
O211        O  0.15623545  0.82438909  0.74348031    -0.78600
O212        O  0.27651003  0.92784204  0.64819849    -0.80100
O213        O  0.41149565  0.86789938  0.79417669    -0.79900
O214        O  0.32223879  0.88026366  0.90070808    -0.78500
Zn215      Zn  0.22141784  0.92320770  0.81497252     1.55700
O216        O  0.38964915  0.92219526  0.72699151    -0.79900
Cd217      Cd  0.33169534  0.85092078  0.82189679     1.59700
Cd218      Cd  0.23772179  0.82594144  0.72992026     1.59600
O219        O  0.31447431  0.76851669  0.82119074    -0.79900
O220        O  0.27419133  0.88334528  0.77527046    -1.90400
Cd221      Cd  0.30949490  0.93453218  0.72598960     1.59900
O222        O  0.25890158  0.74812062  0.75205200    -0.79900
O223        O  0.29864956  0.01291409  0.74879864    -0.78500
C224        C  0.12722897  0.84716061  0.77747659     0.84000
C225        C  0.28655013  0.90898753  0.92182876     0.83700
O226        O  0.21820154  0.99968337  0.78275801    -0.77500
C227        C  0.42496820  0.89809236  0.75506451     0.84500
O228        O  0.14607691  0.88483045  0.80824628    -0.77600
C229        C  0.28687777  0.73399393  0.79298528     0.84600
C230        C  0.25396689  0.88730888  0.62501060     0.84900
O231        O  0.24642676  0.84284718  0.64924279    -0.80000
C232        C  0.68345285  0.58930698  0.85616127     0.04100
C233        C  0.71135148  0.63455990  0.83853209    -0.12000
C234        C  0.73751775  0.63484034  0.78935639     0.01600
C235        C  0.74623628  0.58504109  0.76381511    -0.10600
C236        C  0.72421923  0.53742017  0.78620366     0.04100
C237        C  0.69095031  0.54070167  0.83009434    -0.10000
H238        H  0.70743765  0.67157604  0.86075071     0.09700
H239        H  0.76839912  0.58341684  0.72727165     0.07200
H240        H  0.66910883  0.50502332  0.84240048     0.07100
C241        C  0.53650629  0.96394658  0.68032332     0.04100
C242        C  0.49024041  0.95584832  0.70902718    -0.12000
C243        C  0.48191027  0.90913866  0.73980546     0.01600
C244        C  0.52555726  0.87396661  0.74794579    -0.10600
C245        C  0.57449097  0.88464888  0.72150883     0.04100
C246        C  0.57833576  0.92918090  0.68793675    -0.10000
H247        H  0.45865200  0.98439000  0.70344381     0.09700
H248        H  0.52081636  0.83821356  0.77188327     0.07200
H249        H  0.61437012  0.93616254  0.66560393     0.07100
C250        C  0.87124757  0.75175851  0.47634842     0.04100
C251        C  0.84227518  0.76430571  0.42968937    -0.12000
C252        C  0.79975739  0.79958890  0.43068096     0.01600
C253        C  0.78231256  0.81902890  0.48090365    -0.10600
C254        C  0.81094433  0.80524346  0.52895665     0.04100
C255        C  0.85853220  0.77706051  0.52427643    -0.10000
H256        H  0.85046321  0.74436466  0.39241624     0.09700
H257        H  0.74677511  0.84278661  0.48255229     0.07200
H258        H  0.88259206  0.76841733  0.55996688     0.07100
O259        O  0.81038050  0.96337488  0.74026275    -0.77500
C260        C  0.77338987  0.86723366  0.88140300     0.83500
O261        O  0.89289744  0.78394344  0.72874304    -0.78600
O262        O  0.72170964  0.72693298  0.78527626    -0.80100
O263        O  0.65154689  0.85010436  0.68292091    -0.79900
O264        O  0.73973782  0.95315157  0.68361746    -0.78500
Zn265      Zn  0.82361982  0.88812081  0.77105445     1.55700
O266        O  0.64411219  0.83936497  0.77081469    -0.79900
Cd267      Cd  0.73226724  0.87007319  0.67490251     1.59700
Cd268      Cd  0.81318906  0.77461688  0.70443344     1.59600
O269        O  0.75976821  0.84973335  0.59738689    -0.79900
O270        O  0.77431096  0.83614183  0.73485408    -1.90400
Cd271      Cd  0.72062554  0.80840682  0.78636554     1.59900
O272        O  0.81156346  0.78203702  0.62126449    -0.79900
O273        O  0.74117196  0.83032266  0.86443281    -0.78500
C274        C  0.92246490  0.82059527  0.75125143     0.84000
C275        C  0.77476230  0.98290191  0.70843812     0.83700
O276        O  0.80537336  0.89172866  0.85023888    -0.77500
C277        C  0.62439430  0.85336312  0.72543853     0.84500
O278        O  0.90316130  0.86510832  0.76621028    -0.77600
C279        C  0.79223900  0.81313282  0.58520571     0.84600
C280        C  0.74919425  0.68911915  0.76669553     0.84900
O281        O  0.78576384  0.69836334  0.73287040    -0.80000
C282        C  0.45945477  0.24298666  0.33513972     0.04100
C283        C  0.41519973  0.27549977  0.32750388    -0.12000
C284        C  0.41691063  0.32026408  0.29407478     0.01600
C285        C  0.46618859  0.33571995  0.27082182    -0.10600
C286        C  0.51185078  0.30357896  0.27954762     0.04100
C287        C  0.50671408  0.25632705  0.30927707    -0.10000
H288        H  0.37857891  0.26628714  0.34812814     0.09700
H289        H  0.46858550  0.37078192  0.24556690     0.07200
H290        H  0.54126803  0.23140529  0.31535573     0.07100
O291        O  0.68865507  0.45243943  0.25199724    -0.77500
C292        C  0.56697752  0.31641917  0.26177529     0.83500
O293        O  0.75516910  0.31113627  0.37256602    -0.78600
O294        O  0.68526422  0.18715662  0.23079387    -0.80100
O295        O  0.73299373  0.34396998  0.11040937    -0.79900
O296        O  0.75789817  0.44214839  0.19843704    -0.78500
Zn297      Zn  0.67453647  0.37783223  0.28529196     1.55700
O298        O  0.66838761  0.28338130  0.12713356    -0.79900
Cd299      Cd  0.76215578  0.36023583  0.19000879     1.59700
Cd300      Cd  0.76325048  0.28708890  0.29552635     1.59600
O301        O  0.84244996  0.33972563  0.20125623    -0.79900
O302        O  0.71524976  0.32481506  0.24492471    -1.90400
Cd303      Cd  0.66732128  0.26833730  0.20913210     1.59900
O304        O  0.84335699  0.29508958  0.27850947    -0.79900
O305        O  0.58963015  0.28088961  0.23389765    -0.78500
C306        C  0.73246106  0.35088429  0.39292478     0.84000
C307        C  0.72337490  0.47141917  0.21991504     0.83700
O308        O  0.59323642  0.35688836  0.28183701    -0.77500
C309        C  0.69356588  0.31367400  0.09445089     0.84500
O310        O  0.70105348  0.38040510  0.36517436    -0.77600
C311        C  0.86736542  0.31506851  0.23881822     0.84600
C312        C  0.71661512  0.17319917  0.26957623     0.84900
O313        O  0.74574239  0.20787732  0.29477623    -0.80000
C314        C  0.53712555  0.93885821  0.33366097     0.04100
C315        C  0.57184207  0.90620062  0.30677469    -0.12000
C316        C  0.55306200  0.86246030  0.27594046     0.01600
C317        C  0.49706256  0.85343187  0.26804958    -0.10600
C318        C  0.46051770  0.88698756  0.29429792     0.04100
C319        C  0.48168149  0.92843688  0.32790660    -0.10000
H320        H  0.61466001  0.91419191  0.31091069     0.09700
H321        H  0.48234200  0.82061100  0.24270981     0.07200
H322        H  0.45478977  0.95217256  0.35077642     0.07100
C323        C  0.66911478  0.56573801  0.11979293     0.04100
C324        C  0.69338574  0.52161125  0.14304525    -0.12000
C325        C  0.71516114  0.52421030  0.19530441     0.01600
C326        C  0.72361531  0.57463626  0.22080557    -0.10600
C327        C  0.70895293  0.62139685  0.19257929     0.04100
C328        C  0.68019981  0.61612223  0.14375970    -0.10000
H329        H  0.69134094  0.48339171  0.12274719     0.09700
H330        H  0.74272916  0.57746666  0.26029709     0.07200
H331        H  0.66417863  0.65218980  0.12638105     0.07100
O332        O  0.74002164  0.78129084  0.35579221    -0.77500
C333        C  0.59601080  0.83046144  0.25308402     0.83500
O334        O  0.75083506  0.70476155  0.17654384    -0.78600
O335        O  0.70550944  0.87797483  0.11563026    -0.80100
O336        O  0.77253765  0.94759283  0.26622207    -0.79900
O337        O  0.79996924  0.84878761  0.35024187    -0.78500
Zn338      Zn  0.70368596  0.77606795  0.28020815     1.55700
O339        O  0.68957776  0.94464333  0.22956450    -0.79900
Cd340      Cd  0.79850710  0.86889873  0.26909481     1.59700
Cd341      Cd  0.77840543  0.78361748  0.17316091     1.59600
O342        O  0.87821893  0.85517167  0.24325028    -0.79900
O343        O  0.74247162  0.82288980  0.23084253    -1.90400
Cd344      Cd  0.68775247  0.86888956  0.19476042     1.59900
O345        O  0.86015895  0.78600967  0.18854792    -0.79900
O346        O  0.60994491  0.84068080  0.20553007    -0.78500
C347        C  0.72328930  0.67703812  0.20934961     0.84000
C348        C  0.77616418  0.81253064  0.37722406     0.83700
O349        O  0.62764807  0.80635259  0.28583704    -0.77500
C350        C  0.72727878  0.96903357  0.25586109     0.84500
O351        O  0.70351558  0.69770363  0.25129213    -0.77600
C352        C  0.89402439  0.81686568  0.21366605     0.84600
C353        C  0.73763666  0.85776229  0.08281866     0.84900
O354        O  0.76723381  0.81878583  0.09643749    -0.80000
O355        O  0.12223181  0.87714256  0.22296405    -0.77500
C356        C  0.22284016  0.01592169  0.28980469     0.83500
O357        O  0.29501892  0.86204948  0.14772192    -0.78600
O358        O  0.37083269  0.90982122  0.31645556    -0.80100
O359        O  0.20841673  0.82944174  0.39235258    -0.79900
O360        O  0.12251302  0.81822488  0.28980955    -0.78500
Zn361      Zn  0.19786370  0.91194518  0.22629780     1.55700
O362        O  0.26418221  0.90036440  0.40405019    -0.79900
Cd363      Cd  0.20329371  0.81334222  0.31051601     1.59700
Cd364      Cd  0.29965006  0.83561888  0.22644359     1.59600
O365        O  0.22125024  0.73359200  0.28672847    -0.79900
O366        O  0.24631483  0.87056445  0.27204946    -1.90400
Cd367      Cd  0.28752118  0.91829884  0.32502631     1.59900
O368        O  0.27999224  0.75635608  0.22535876    -0.79900
O369        O  0.26483839  0.99826825  0.31360381    -0.78500
C370        C  0.26513027  0.89660802  0.12559887     0.84000
C371        C  0.09844083  0.84175768  0.25123314     0.83700
O372        O  0.19375465  0.98667442  0.25777403    -0.77500
C373        C  0.23105083  0.86559105  0.42244106     0.84500
O374        O  0.22727637  0.91820957  0.15060712    -0.77600
C375        C  0.25131404  0.72091197  0.24832808     0.84600
C376        C  0.40055672  0.88074103  0.28769777     0.84900
O377        O  0.37986077  0.84795766  0.25299311    -0.80000
O378        O  0.34563150  0.38201664  0.30673673    -0.77500
C379        C  0.22991075  0.51405280  0.25075183     0.83500
O380        O  0.16856281  0.37729400  0.39295241    -0.78600
O381        O  0.09356428  0.37915802  0.21413634    -0.80100
O382        O  0.24397702  0.32096575  0.14839334    -0.79900
O383        O  0.33341015  0.31372800  0.24907665    -0.78500
Zn384      Zn  0.26891388  0.41367006  0.30995943     1.55700
O385        O  0.20431677  0.39951968  0.13783186    -0.79900
Cd386      Cd  0.25205205  0.30922989  0.23089964     1.59700
Cd387      Cd  0.16895955  0.33503919  0.32122960     1.59600
O388        O  0.22704717  0.23242438  0.25767987    -0.79900
O389        O  0.21724862  0.36859678  0.26937542    -1.90400
Cd390      Cd  0.17342955  0.41008523  0.21538266     1.59900
O391        O  0.19201253  0.25736973  0.33462461    -0.79900
O392        O  0.18583501  0.49235252  0.23279861    -0.78500
C393        C  0.20383482  0.40974388  0.41328806     0.84000
C394        C  0.36366080  0.34241486  0.28040996     0.83700
O395        O  0.26521657  0.48741971  0.27671193    -0.77500
C396        C  0.23105581  0.36102705  0.11920449     0.84500
O397        O  0.24551669  0.42388889  0.38788980    -0.77600
C398        C  0.20749716  0.22077519  0.30312043     0.84600
C399        C  0.06998138  0.34572748  0.24498633     0.84900
O400        O  0.09258768  0.32791505  0.28752504    -0.80000
C401        C  0.54246716  0.05211066  0.43411527    -0.13400
C402        C  0.57633824  0.02989767  0.47360216     0.17000
C403        C  0.60934479  0.98735349  0.45913880     0.03300
C404        C  0.60058270  0.96224794  0.40941876    -0.11900
C405        C  0.55925936  0.97832834  0.37399139    -0.02900
C406        C  0.53384324  0.02693688  0.38421047     0.02500
C407        C  0.56121091  0.03563766  0.53010340     0.09400
N408        N  0.64539416  0.96309675  0.49707382     0.65700
H409        H  0.62153200  0.92562842  0.40211038     0.18600
N410        N  0.49615217  0.04858943  0.34620654     0.76200
H411        H  0.51766825  0.08509019  0.44450524     0.10200
C412        C  0.59880153  0.04598754  0.57244328     0.03900
C413        C  0.58703337  0.02859166  0.62415401    -0.04900
C414        C  0.53860429  0.00087561  0.63408303    -0.23300
C415        C  0.49838649  0.99778381  0.59309703     0.13100
C416        C  0.51003078  0.01539478  0.54186351    -0.12400
N417        N  0.65056761  0.06914466  0.56281878     0.64800
H418        H  0.61765306  0.03265766  0.65576111     0.12600
N419        N  0.44880358  0.96917858  0.60006908     0.61400
H420        H  0.48067376  0.00722137  0.50974061     0.08800
O421        O  0.45098718  0.06312021  0.36114723    -0.40000
O422        O  0.50746134  0.05223238  0.29737744    -0.39200
O423        O  0.62699391  0.93693796  0.53588499    -0.39200
O424        O  0.69358209  0.95728325  0.48501974    -0.36900
O425        O  0.40583465  0.99455046  0.60106921    -0.37800
O426        O  0.44679014  0.91885320  0.59495361    -0.34000
O427        O  0.65469064  0.11814812  0.55132027    -0.35400
O428        O  0.69203832  0.04465254  0.57746500    -0.39700
C429        C  0.46300215  0.14464086  0.57954157    -0.13400
C430        C  0.43058617  0.16761197  0.53931299     0.17000
C431        C  0.39263539  0.20553374  0.55371930     0.03300
C432        C  0.39458892  0.22638710  0.60550881    -0.11900
C433        C  0.43441523  0.21092634  0.64293156    -0.02900
C434        C  0.46466598  0.16556971  0.63180196     0.02500
C435        C  0.44604204  0.16449818  0.48282910     0.09400
N436        N  0.35874525  0.23060413  0.51435638     0.65700
H437        H  0.37010189  0.26056627  0.61320941     0.18600
N438        N  0.50037310  0.14388551  0.67170841     0.76200
H439        H  0.49146970  0.11502703  0.56892228     0.10200
C440        C  0.49582868  0.18697466  0.46809441     0.03900
C441        C  0.50229266  0.20426507  0.41573197    -0.04900
C442        C  0.45928622  0.20217487  0.37826707    -0.23300
C443        C  0.41256796  0.17185219  0.39042337     0.13100
C444        C  0.40671024  0.15278777  0.44285090    -0.12400
N445        N  0.53804186  0.19892956  0.50681928     0.64800
H446        H  0.53870248  0.22665594  0.40723963     0.12600
N447        N  0.36978851  0.16320477  0.35121922     0.61400
H448        H  0.36922240  0.13372715  0.45386053     0.08800
O449        O  0.54760754  0.13276933  0.66017944    -0.40000
O450        O  0.48529266  0.13737183  0.71911652    -0.39200
O451        O  0.30864734  0.22843636  0.51922254    -0.39200
O452        O  0.37877422  0.26343688  0.48176769    -0.36900
O453        O  0.37986620  0.15676906  0.30236041    -0.37800
O454        O  0.32178434  0.16055504  0.36548792    -0.34000
O455        O  0.58485191  0.18446962  0.49756659    -0.35400
O456        O  0.53150058  0.23383766  0.54261252    -0.39700
C457        C  0.95432749  0.50471281  0.51574348    -0.13400
C458        C  0.94644216  0.53861642  0.47153028     0.17000
C459        C  0.92203278  0.51687695  0.42445443     0.03300
C460        C  0.89169000  0.46983600  0.42789003    -0.11900
C461        C  0.88706059  0.44279412  0.47705768    -0.02900
C462        C  0.92444773  0.45639967  0.51921807     0.02500
C463        C  0.94150753  0.59683254  0.48116479     0.09400
N464        N  0.91800375  0.54703615  0.37595294     0.65700
H465        H  0.86618462  0.45982071  0.39336044     0.18600
N466        N  0.92915842  0.42446204  0.56687807     0.76200
H467        H  0.97661714  0.51975660  0.55079968     0.10200
C468        C  0.90715271  0.61440106  0.52129770     0.03900
C469        C  0.89053165  0.66686503  0.52120925    -0.04900
C470        C  0.90264226  0.70204608  0.47929579    -0.23300
C471        C  0.93714832  0.68470564  0.43906761     0.13100
C472        C  0.95908431  0.63368453  0.44270714    -0.12400
N473        N  0.88117745  0.57789327  0.55691486     0.64800
H474        H  0.86186905  0.67761577  0.55087861     0.12600
N475        N  0.94909649  0.71696500  0.39349961     0.61400
H476        H  0.98574670  0.62096511  0.41197991     0.08800
O477        O  0.92339538  0.37413915  0.56410498    -0.40000
O478        O  0.94053998  0.44621660  0.61173935    -0.39200
O479        O  0.95227622  0.54109332  0.34047440    -0.39200
O480        O  0.87589390  0.57206798  0.36479310    -0.36900
O481        O  0.99051621  0.74682003  0.39509164    -0.37800
O482        O  0.92873999  0.70368857  0.34829154    -0.34000
O483        O  0.88561238  0.58575289  0.60688133    -0.35400
O484        O  0.84380146  0.54739876  0.53865698    -0.39700
C485        C  0.09305426  0.64308182  0.49114899    -0.13400
C486        C  0.06926684  0.65248293  0.54040844     0.17000
C487        C  0.06211450  0.60949757  0.57620141     0.03300
C488        C  0.08584582  0.56040323  0.56501663    -0.11900
C489        C  0.11695906  0.55353119  0.51932019    -0.02900
C490        C  0.11771853  0.59471612  0.48058609     0.02500
C491        C  0.06651101  0.70930291  0.55759805     0.09400
N492        N  0.03451818  0.61635410  0.62545684     0.65700
H493        H  0.08188802  0.52800850  0.59345335     0.18600
N494        N  0.14822290  0.59101053  0.43317687     0.76200
H495        H  0.09838334  0.67580306  0.46324066     0.10200
C496        C  0.10098406  0.72945657  0.59941992     0.03900
C497        C  0.11563363  0.78371566  0.59989284    -0.04900
C498        C  0.09880923  0.81762451  0.55804822    -0.23300
C499        C  0.05580374  0.80028284  0.52427372     0.13100
C500        C  0.04071341  0.74594816  0.52368935    -0.12400
N501        N  0.12847159  0.69487902  0.63617678     0.64800
H502        H  0.14746800  0.79652846  0.62791462     0.12600
N503        N  0.02994580  0.83687271  0.48860004     0.61400
H504        H  0.01235597  0.73138618  0.49313864     0.08800
O505        O  0.12564463  0.59773857  0.38782696    -0.40000
O506        O  0.19865227  0.58990827  0.43695778    -0.39200
O507        O  0.99673308  0.64876191  0.62805810    -0.39200
O508        O  0.04719207  0.58937400  0.66640799    -0.36900
O509        O  0.03792711  0.83539446  0.43895256    -0.37800
O510        O  0.99694171  0.86929197  0.50658350    -0.34000
O511        O  0.16206737  0.66262337  0.61893096    -0.35400
O512        O  0.12842769  0.70510584  0.68577885    -0.39700
C513        C  0.53034019  0.52805410  0.08757754    -0.13400
C514        C  0.51228285  0.57906484  0.07476409     0.17000
C515        C  0.55026912  0.61847076  0.05728401     0.03300
C516        C  0.60423612  0.60506702  0.05539936    -0.11900
C517        C  0.62246846  0.55875732  0.08090338    -0.02900
C518        C  0.58443398  0.51663703  0.08854299     0.02500
C519        C  0.45729695  0.59114962  0.09085216     0.09400
N520        N  0.53725991  0.67314461  0.04566093     0.65700
H521        H  0.63306273  0.63566411  0.04376301     0.18600
N522        N  0.59942593  0.46331535  0.10201539     0.76200
H523        H  0.50334738  0.49807000  0.10318664     0.10200
C524        C  0.41108235  0.55982677  0.07456180     0.03900
C525        C  0.36207587  0.56944818  0.09796287    -0.04900
C526        C  0.35850871  0.60669511  0.13962317    -0.23300
C527        C  0.40469426  0.63635248  0.15709025     0.13100
C528        C  0.45312012  0.62773619  0.13308050    -0.12400
N529        N  0.41301860  0.51519975  0.03832049     0.64800
H530        H  0.32710418  0.54534399  0.08563287     0.12600
N531        N  0.40450803  0.67165502  0.20254002     0.61400
H532        H  0.48884025  0.64635836  0.15133161     0.08800
O533        O  0.62154104  0.43499153  0.06747659    -0.40000
O534        O  0.58224217  0.44147590  0.14389551    -0.39200
O535        O  0.51901700  0.70260205  0.08156890    -0.39200
O536        O  0.55787329  0.69572598  0.00581469    -0.36900
O537        O  0.39558080  0.65316118  0.24850311    -0.37800
O538        O  0.42017469  0.71982880  0.19794458    -0.34000
O539        O  0.42512243  0.47013423  0.05711288    -0.35400
O540        O  0.38288292  0.51541892  0.99693969    -0.39700
C541        C  0.56475735  0.55412713  0.94052600    -0.13400
C542        C  0.53086871  0.59554616  0.92500039     0.17000
C543        C  0.55147995  0.63988388  0.89697432     0.03300
C544        C  0.60426595  0.63985420  0.88118110    -0.11900
C545        C  0.63705970  0.59580709  0.89138322    -0.02900
C546        C  0.61825280  0.55429209  0.92503703     0.02500
C547        C  0.47276388  0.58888221  0.93046620     0.09400
N548        N  0.51801041  0.68259038  0.87911931     0.65700
H549        H  0.61705382  0.67193353  0.85509572     0.18600
N550        N  0.65228503  0.51176618  0.94241300     0.76200
H551        H  0.54888212  0.52088154  0.96342020     0.10200
C552        C  0.44485217  0.54954078  0.89955735     0.03900
C553        C  0.39018594  0.55441572  0.88991038    -0.04900
C554        C  0.36253588  0.59749586  0.91169101    -0.23300
C555        C  0.38891618  0.63176067  0.94953581     0.13100
C556        C  0.44424312  0.62816092  0.95703016    -0.12400
N557        N  0.47241861  0.50900547  0.87153834     0.64800
H558        H  0.37090926  0.52763952  0.86051281     0.12600
N559        N  0.36078677  0.67284828  0.97673345     0.61400
H560        H  0.46510763  0.65877621  0.98024064     0.08800
O561        O  0.70130857  0.52118150  0.95325775    -0.40000
O562        O  0.63295774  0.46525189  0.94974279    -0.39200
O563        O  0.53364188  0.73063640  0.88625665    -0.39200
O564        O  0.47748085  0.67259400  0.84891451    -0.36900
O565        O  0.31354315  0.66398536  0.99150647    -0.37800
O566        O  0.38376705  0.71722778  0.98825744    -0.34000
O567        O  0.46599314  0.46050312  0.88437675    -0.35400
O568        O  0.49726368  0.52079115  0.82974262    -0.39700
C569        C  0.98031169  0.15137746  0.93672032    -0.13400
C570        C  0.01246540  0.17262203  0.97929867     0.17000
C571        C  0.05014580  0.21399533  0.96893409     0.03300
C572        C  0.04915657  0.23859552  0.91907689    -0.11900
C573        C  0.01099878  0.22322238  0.87900620    -0.02900
C574        C  0.97890141  0.17658628  0.88649245     0.02500
C575        C  0.99599345  0.16428884  0.03507696     0.09400
N576        N  0.08377112  0.23735407  0.01078271     0.65700
H577        H  0.07437149  0.27409514  0.91433252     0.18600
N578        N  0.94306682  0.15624514  0.84471940     0.76200
H579        H  0.95245320  0.11849083  0.94421297     0.10200
C580        C  0.94549751  0.18233916  0.04963259     0.03900
C581        C  0.93791878  0.19804719  0.10220083    -0.04900
C582        C  0.98017905  0.19749269  0.14075965    -0.23300
C583        C  0.02700165  0.16957842  0.12877842     0.13100
C584        C  0.03451874  0.15332085  0.07551856    -0.12400
N585        N  0.90504068  0.19490382  0.01009990     0.64800
H586        H  0.90122033  0.21840668  0.10989846     0.12600
N587        N  0.06813819  0.16076676  0.16914072     0.61400
H588        H  0.07251763  0.13718743  0.06458208     0.08800
O589        O  0.89680666  0.13889557  0.85566008    -0.40000
O590        O  0.95859041  0.15282278  0.79718147    -0.39200
O591        O  0.13391586  0.23354418  0.00882943    -0.39200
O592        O  0.06446749  0.26986629  0.04341819    -0.36900
O593        O  0.11675440  0.16037099  0.15684781    -0.37800
O594        O  0.05584234  0.15124841  0.21694218    -0.34000
O595        O  0.86164669  0.16792279  0.00791184    -0.35400
O596        O  0.90855340  0.23833361  0.98458255    -0.39700
C597        C  0.08096224  0.69436041  0.04090525    -0.13400
C598        C  0.04254319  0.65540574  0.02465722     0.17000
C599        C  0.00559691  0.63611034  0.06211251     0.03300
C600        C  0.00017592  0.66465064  0.11029366    -0.11900
C601        C  0.03213883  0.71069640  0.12176143    -0.02900
C602        C  0.07529372  0.72340938  0.08802677     0.02500
C603        C  0.02977747  0.65390259  0.96626737     0.09400
N604        N  0.97036159  0.59124423  0.04912708     0.65700
H605        H  0.96916453  0.65268662  0.13749923     0.18600
N606        N  0.10909358  0.77011553  0.09645066     0.76200
H607        H  0.11012703  0.70887155  0.01275623     0.10200
C608        C  0.98242077  0.67788486  0.94687282     0.03900
C609        C  0.98058344  0.69926023  0.89550035    -0.04900
C610        C  0.02537456  0.69885064  0.86280751    -0.23300
C611        C  0.06940694  0.66742023  0.87872747     0.13100
C612        C  0.07120426  0.64543389  0.93057511    -0.12400
N613        N  0.93966751  0.69008861  0.98150544     0.64800
H614        H  0.94625480  0.72299014  0.88479568     0.12600
N615        N  0.11342290  0.65994793  0.84406361     0.61400
H616        H  0.10711735  0.62595064  0.94489946     0.08800
O617        O  0.08963438  0.81608485  0.09198981    -0.40000
O618        O  0.15929521  0.76559051  0.09898206    -0.39200
O619        O  0.98655304  0.55304322  0.02110991    -0.39200
O620        O  0.92407720  0.58811072  0.06793744    -0.36900
O621        O  0.16068466  0.65836918  0.86326196    -0.37800
O622        O  0.10491503  0.65191429  0.79449762    -0.34000
O623        O  0.94566821  0.72836644  0.01455697    -0.35400
O624        O  0.89300092  0.67225484  0.96999896    -0.39700
C625        C  0.07495147  0.12204216  0.54533773    -0.13400
C626        C  0.03812402  0.08335370  0.56369969     0.17000
C627        C  0.05668660  0.04312472  0.59860170     0.03300
C628        C  0.10759590  0.04841573  0.62232613    -0.11900
C629        C  0.14104578  0.09312653  0.61208117    -0.02900
C630        C  0.12656660  0.12736402  0.56916902     0.02500
C631        C  0.97973583  0.09182281  0.55703554     0.09400
N632        N  0.02215447  0.00074020  0.61657346     0.65700
H633        H  0.11755023  0.02056765  0.65399194     0.18600
N634        N  0.16264955  0.16873833  0.55123708     0.76200
H635        H  0.06195789  0.15083423  0.51560734     0.10200
C636        C  0.95779581  0.14016852  0.57458969     0.03900
C637        C  0.90370742  0.14132143  0.58644203    -0.04900
C638        C  0.87078240  0.09493516  0.58181385    -0.23300
C639        C  0.89032914  0.04982227  0.55449147     0.13100
C640        C  0.94499455  0.04845087  0.54369633    -0.12400
N641        N  0.99098643  0.18598322  0.58869249     0.64800
H642        H  0.89001596  0.17677530  0.60638371     0.12600
N643        N  0.85602337  0.00438206  0.54024327     0.61400
H644        H  0.96116622  0.01187136  0.52846818     0.08800
O645        O  0.14505582  0.21316415  0.53560701    -0.40000
O646        O  0.21197689  0.15996396  0.54826419    -0.39200
O647        O  0.03148921  0.95297818  0.60388103    -0.39200
O648        O  0.98930658  0.00978236  0.65273805    -0.36900
O649        O  0.87500745  0.95817632  0.53648569    -0.37800
O650        O  0.80685338  0.01048679  0.52961601    -0.34000
O651        O  0.98388804  0.22971710  0.56467443    -0.35400
O652        O  0.02028970  0.18539331  0.63081898    -0.39700
C653        C  0.87839343  0.10331627  0.43882019    -0.13400
C654        C  0.91263950  0.06711068  0.41487734     0.17000
C655        C  0.89077704  0.01995468  0.39101403     0.03300
C656        C  0.83541015  0.01350675  0.38538786    -0.11900
C657        C  0.80095835  0.05467698  0.40015697    -0.02900
C658        C  0.82249689  0.09676453  0.43309652     0.02500
C659        C  0.97025057  0.08101497  0.41075344     0.09400
N660        N  0.92371667  0.98170990  0.36562293     0.65700
H661        H  0.82082252  0.97951021  0.36176348     0.18600
N662        N  0.78828788  0.13368926  0.45903045     0.76200
H663        H  0.89547765  0.13769105  0.46046969     0.10200
C664        C  0.98672324  0.12906480  0.38611473     0.03900
C665        C  0.04062849  0.13774636  0.37552265    -0.04900
C666        C  0.07922737  0.09957096  0.38897818    -0.23300
C667        C  0.06329881  0.05343554  0.41790806     0.13100
C668        C  0.00887410  0.04420514  0.42722650    -0.12400
N669        N  0.94878961  0.16705092  0.36662141     0.64800
H670        H  0.05115435  0.17265256  0.35211525     0.12600
N671        N  0.10141407  0.01548006  0.43748109     0.61400
H672        H  0.99646844  0.00731232  0.44628317     0.08800
O673        O  0.80521827  0.18027999  0.47163401    -0.40000
O674        O  0.74160686  0.11905741  0.47150986    -0.39200
O675        O  0.91722199  0.93243112  0.37526732    -0.39200
O676        O  0.95259127  0.99602959  0.32732842    -0.36900
O677        O  0.08970960  0.96597272  0.43684981    -0.37800
O678        O  0.14544400  0.03151140  0.45881445    -0.34000
O679        O  0.95525650  0.21601464  0.37854314    -0.35400
O680        O  0.91355556  0.15310604  0.33159395    -0.39700
C681        C  0.65950633  0.09723577  0.00251409    -0.13400
C682        C  0.61202003  0.09126882  0.97065234     0.17000
C683        C  0.60564815  0.04610534  0.93638097     0.03300
C684        C  0.64489474  0.00729057  0.93723116    -0.11900
C685        C  0.69029369  0.01217711  0.97139582    -0.02900
C686        C  0.69817537  0.05789161  0.00385204     0.02500
C687        C  0.57193821  0.13392660  0.97487853     0.09400
N688        N  0.55866096  0.03633164  0.90324827     0.65700
H689        H  0.63852999  0.97152185  0.91280013     0.18600
N690        N  0.74472815  0.06448218  0.03862996     0.76200
H691        H  0.66655871  0.13282864  0.02700391     0.10200
C692        C  0.56213772  0.15652314  0.02570022     0.03900
C693        C  0.54834400  0.21029723  0.02843855    -0.04900
C694        C  0.55016567  0.24192524  0.98206222    -0.23300
C695        C  0.53713703  0.21455410  0.93346841     0.13100
C696        C  0.55384495  0.16143758  0.92893855    -0.12400
N697        N  0.57081929  0.12697387  0.07439093     0.64800
H698        H  0.54686512  0.22870726  0.06745333     0.12600
N699        N  0.51583641  0.24248605  0.88744545     0.61400
H700        H  0.55789081  0.14474369  0.88950011     0.08800
O701        O  0.74026436  0.08106046  0.08612524    -0.40000
O702        O  0.79067706  0.05597999  0.02130637    -0.39200
O703        O  0.55717315  0.05546249  0.85652034    -0.39200
O704        O  0.53082313  0.99460118  0.91191795    -0.36900
O705        O  0.50550235  0.21787500  0.84385887    -0.37800
O706        O  0.50371773  0.29109895  0.89126316    -0.34000
O707        O  0.59073354  0.15002250  0.11582591    -0.35400
O708        O  0.55775958  0.07787801  0.07640739    -0.39700
C709        C  0.40718848  0.22399372  0.99007962    -0.13400
C710        C  0.41924192  0.20931830  0.04289079     0.17000
C711        C  0.42839613  0.24963608  0.08202314     0.03300
C712        C  0.41588299  0.30256595  0.06907583    -0.11900
C713        C  0.38822546  0.31383501  0.02032982    -0.02900
C714        C  0.38995715  0.27522124  0.97836259     0.02500
C715        C  0.40631689  0.15301079  0.05606060     0.09400
N716        N  0.44286324  0.23656446  0.13631944     0.65700
H717        H  0.41890621  0.33259951  0.10059398     0.18600
N718        N  0.36532688  0.28299784  0.92658716     0.76200
H719        H  0.40232979  0.19341058  0.95916393     0.10200
C720        C  0.35925745  0.13963175  0.08384627     0.03900
C721        C  0.33805063  0.08727590  0.08051566    -0.04900
C722        C  0.36142453  0.04847933  0.04847665    -0.23300
C723        C  0.40982530  0.06104891  0.02371586     0.13100
C724        C  0.43139482  0.11296427  0.02723103    -0.12400
N725        N  0.32843470  0.17964919  0.10935036     0.64800
H726        H  0.30032358  0.07821900  0.09919235     0.12600
N727        N  0.43582092  0.02241438  0.99208235     0.61400
H728        H  0.46505131  0.12315209  0.00299694     0.08800
O729        O  0.32569800  0.25353485  0.91185486    -0.40000
O730        O  0.39069892  0.30874492  0.89172323    -0.39200
O731        O  0.49023277  0.22387459  0.14833659    -0.39200
O732        O  0.41126549  0.24648401  0.17335869    -0.36900
O733        O  0.43468051  0.02672377  0.94170480    -0.37800
O734        O  0.46547327  0.98846355  0.01451826    -0.34000
O735        O  0.31070676  0.21833081  0.08232038    -0.35400
O736        O  0.30969456  0.17049634  0.15491838    -0.39700
loop_ 
_geom_bond_atom_site_label_1 
_geom_bond_atom_site_label_2 
_geom_bond_distance 
_geom_bond_site_symmetry_2 
_ccdc_geom_bond_type 
C1            C2   1.390       .  A
C1            C6   1.404   1_554  A
C1          C722   1.479   1_565  S
C2            C3   1.394       .  A
C2            H7   1.086       .  S
C3            C4   1.419       .  A
C3          C370   1.474       .  S
C4            C5   1.421   1_554  A
C4            H8   1.083       .  S
C5            C6   1.403       .  A
C5          C225   1.487       .  S
C6            H9   1.083       .  S
C10          C11   1.400   1_556  A
C10          C15   1.400       .  A
C10         C694   1.507       .  S
C11          C12   1.405       .  A
C11          H16   1.081       .  S
C12          C13   1.424   1_554  A
C12         C309   1.499       .  S
C13          C14   1.424       .  A
C13          H17   1.082       .  S
C14          C15   1.402       .  A
C14         C197   1.495       .  S
C15          H18   1.078       .  S
C19          C20   1.389       .  A
C19          C24   1.400       .  A
C19         C657   1.500       .  S
C20          C21   1.399       .  A
C20          H25   1.086   1_545  S
C21          C22   1.420       .  A
C21         C350   1.476   1_545  S
C22          C23   1.419       .  A
C22          H26   1.083       .  S
C23          C24   1.416       .  A
C23         C312   1.500       .  S
C24          H27   1.079       .  S
C28          C29   1.393       .  A
C28          C33   1.403       .  A
C28         C629   1.494       .  S
C29          C30   1.395       .  A
C29          H34   1.085       .  S
C30          C31   1.417       .  A
C30         C210   1.474       .  S
C31          C32   1.421       .  A
C31          H35   1.083       .  S
C32          C33   1.415       .  A
C32         C156   1.501       .  S
C33          H36   1.082       .  S
C37          C38   1.401   1_455  A
C37          C42   1.386       .  A
C37         C601   1.486       .  S
C38          C39   1.417       .  A
C38          H43   1.083       .  S
C39          C40   1.426       .  A
C39         C352   1.508       .  S
C40          C41   1.422   1_655  A
C40          H44   1.083       .  S
C41          C42   1.392       .  A
C41         C371   1.475       .  S
C42          H45   1.086       .  S
C46          C47   1.393       .  A
C46          C51   1.404   1_455  A
C46         C573   1.485       .  S
C47          C48   1.394       .  A
C47          H52   1.086       .  S
C48          C49   1.410   1_455  A
C48         C154   1.468       .  S
C49          C50   1.415       .  A
C49          H53   1.083       .  S
C50          C51   1.406       .  A
C50         C195   1.478       .  S
C51          H54   1.084       .  S
C55          C56   1.391   1_556  A
C55          C60   1.386       .  A
C55         C685   1.467   1_565  S
C56          C57   1.407       .  A
C56          H61   1.084       .  S
C57          C58   1.420   1_554  A
C57         C353   1.494       .  S
C58          C59   1.422       .  A
C58          H62   1.083       .  S
C59          C60   1.396       .  A
C59         C260   1.472       .  S
C60          H63   1.086       .  S
C64          C65   1.398       .  A
C64          C69   1.392   1_554  A
C64         C713   1.499       .  S
C65          C66   1.402       .  A
C65          H70   1.082       .  S
C66          C67   1.427       .  A
C66         C396   1.497       .  S
C67          C68   1.428   1_554  A
C67          H71   1.082       .  S
C68          C69   1.406       .  A
C68         C157   1.497       .  S
C69          H72   1.080       .  S
C73          C74   1.393       .  A
C73          C78   1.400       .  A
C73         C638   1.493       .  S
C74          C75   1.391       .  A
C74          H79   1.083       .  S
C75          C76   1.424       .  A
C75         C275   1.478   1_545  S
C76          C77   1.425       .  A
C76          H80   1.082       .  S
C77          C78   1.415       .  A
C77         C198   1.508       .  S
C78          H81   1.083       .  S
C82          C83   1.397       .  A
C82          C87   1.396       .  A
C82         C666   1.489       .  S
C83          C84   1.407       .  A
C83          H88   1.083       .  S
C84          C85   1.420       .  A
C84         C398   1.495       .  S
C85          C86   1.418       .  A
C85          H89   1.083       .  S
C86          C87   1.399       .  A
C86         C356   1.478       .  S
C87          H90   1.083       .  S
C91          C92   1.403       .  A
C91          C96   1.397   1_455  A
C91         C610   1.494       .  S
C92          C93   1.405       .  A
C92          H97   1.083       .  S
C93          C94   1.422       .  A
C93         C224   1.487       .  S
C94          C95   1.421   1_455  A
C94          H98   1.083       .  S
C95          C96   1.402       .  A
C95         C274   1.491       .  S
C96          H99   1.084       .  S
C100        C101   1.398       .  A
C100        C105   1.406   1_655  A
C100        C582   1.490       .  S
C101        C102   1.395       .  A
C101        H106   1.085       .  S
C102        C103   1.413       .  A
C102        C311   1.470       .  S
C103        C104   1.413   1_655  A
C103        H107   1.083       .  S
C104        C105   1.404       .  A
C104        C399   1.478       .  S
C105        H108   1.083       .  S
C109        C110   1.396       .  A
C109        C114   1.386       .  A
C109        C554   1.472       .  S
C110        C111   1.403       .  A
C110        H115   1.082       .  S
C111        C112   1.427       .  A
C111        C229   1.499       .  S
C112        C113   1.423       .  A
C112        H116   1.083       .  S
C113        C114   1.392       .  A
C113        C137   1.475       .  S
C114        H117   1.087       .  S
C118        C119   1.384       .  A
C118        C123   1.387       .  A
C118        C526   1.474       .  S
C119        C120   1.408       .  A
C119        H124   1.083       .  S
C120        C121   1.424       .  A
C120        C375   1.499       .  S
C121        C122   1.425       .  A
C121        H125   1.083       .  S
C122        C123   1.398       .  A
C122        C379   1.474       .  S
C123        H126   1.086       .  S
C127        C128   1.404       .  A
C127        C132   1.409       .  A
C127        C489   1.497       .  S
C128        C129   1.398       .  A
C128        H133   1.084       .  S
C129        C130   1.408       .  A
C129        C152   1.472       .  S
C130        C131   1.409       .  A
C130        H134   1.083       .  S
C131        C132   1.407       .  A
C131        C393   1.478       .  S
C132        H135   1.082       .  S
O136        C152   1.279       .  A
O136       Zn142   2.060       .  S
C137        O153   1.284       .  A
C137        O150   1.280       .  A
O138        C151   1.276       .  A
O138       Cd145   2.063       .  S
O139        C157   1.280       .  A
O139       Cd148   2.142       .  S
O140        C154   1.272       .  A
O140       Cd144   2.059       .  S
O141        C152   1.271       .  A
O141       Cd144   2.054       .  S
Zn142       O153   2.057       .  S
Zn142       O155   2.112       .  S
Zn142       O147   1.959       .  S
O143        C154   1.281       .  A
O143       Cd148   2.101       .  S
Cd144       O146   2.057       .  S
Cd144       O147   1.984       .  S
Cd145       O149   2.132       .  S
Cd145       O158   2.067       .  S
Cd145       O147   1.991       .  S
O146        C156   1.276       .  A
O147       Cd148   2.022       .  S
Cd148       O150   2.096       .  S
O149        C156   1.281       .  A
C151        C170   1.490       .  S
C151        O155   1.286       .  A
C157        O158   1.279       .  A
C159        C160   1.404       .  A
C159        C164   1.393       .  A
C159        C461   1.496       .  S
C160        C161   1.407       .  A
C160        H165   1.081       .  S
C161        C162   1.417       .  A
C161        C178   1.479       .  S
C162        C163   1.413       .  A
C162        H166   1.083       .  S
C163        C164   1.396       .  A
C163        C306   1.470       .  S
C164        H167   1.083       .  S
C168        C169   1.388       .  A
C168        C173   1.402       .  A
C168        C433   1.485       .  S
C169        C170   1.398       .  A
C169        H174   1.086       .  S
C170        C171   1.426       .  A
C171        C172   1.431       .  A
C171        H175   1.082       .  S
C172        C173   1.405       .  A
C172        C192   1.499       .  S
C173        H176   1.083       .  S
O177        C193   1.280       .  A
O177       Zn183   2.059       .  S
C178        O194   1.281       .  A
C178        O191   1.272       .  A
O179        C192   1.283       .  A
O179       Cd186   2.105       .  S
O180        C198   1.274       .  A
O180       Cd189   2.048       .  S
O181        C195   1.277       .  A
O181       Cd185   2.095       .  S
O182        C193   1.277       .  A
O182       Cd185   2.077       .  S
Zn183       O194   2.096       .  S
Zn183       O196   2.097       .  S
Zn183       O188   1.992       .  S
O184        C195   1.273       .  A
O184       Cd189   2.081       .  S
Cd185       O187   2.105       .  S
Cd185       O188   2.017       .  S
Cd186       O190   2.093       .  S
Cd186       O199   2.164       .  S
Cd186       O188   2.013       .  S
O187        C197   1.277       .  A
O188       Cd189   1.976       .  S
Cd189       O191   2.037       .  S
O190        C197   1.284       .  A
C192        O196   1.282       .  A
C193        C236   1.474       .  S
C198        O199   1.283       .  A
C200        C201   1.405       .  A
C200        C205   1.389       .  A
C200        C498   1.487       .  S
C201        C202   1.410       .  A
C201        H206   1.081       .  S
C202        C203   1.418       .  A
C202        C373   1.494       .  S
C203        C204   1.416       .  A
C203        H207   1.083       .  S
C204        C205   1.398       .  A
C204        C230   1.473       .  S
C205        H208   1.087       .  S
O209        C225   1.281       .  A
O209       Zn215   2.059       .  S
C210        O226   1.283   1_545  A
C210        O223   1.269       .  A
O211        C224   1.274       .  A
O211       Cd218   2.075       .  S
O212        C230   1.273       .  A
O212       Cd221   2.089       .  S
O213        C227   1.284       .  A
O213       Cd217   2.164       .  S
O214        C225   1.283       .  A
O214       Cd217   2.117       .  S
Zn215       O226   2.078       .  S
Zn215       O228   2.093       .  S
Zn215       O220   1.963       .  S
O216        C227   1.275       .  A
O216       Cd221   2.034       .  S
Cd217       O219   2.091       .  S
Cd217       O220   2.010       .  S
Cd218       O222   2.099       .  S
Cd218       O231   2.075       .  S
Cd218       O220   2.005       .  S
O219        C229   1.284       .  A
O220       Cd221   1.987       .  S
Cd221       O223   2.063   1_565  S
O222        C229   1.276       .  A
C224        O228   1.282       .  A
C227        C243   1.504       .  S
C230        O231   1.279       .  A
C232        C233   1.393       .  A
C232        C237   1.394       .  A
C232        C545   1.488       .  S
C233        C234   1.408       .  A
C233        H238   1.084       .  S
C234        C235   1.420       .  A
C234        C280   1.496       .  S
C235        C236   1.421       .  A
C235        H239   1.083       .  S
C236        C237   1.399       .  A
C237        H240   1.083       .  S
C241        C242   1.390       .  A
C241        C246   1.385       .  A
C241        C414   1.481   1_565  S
C242        C243   1.414       .  A
C242        H247   1.083       .  S
C243        C244   1.428       .  A
C244        C245   1.427       .  A
C244        H248   1.082       .  S
C245        C246   1.398       .  A
C245        C277   1.490       .  S
C246        H249   1.084       .  S
C250        C251   1.393       .  A
C250        C255   1.399       .  A
C250        C470   1.487       .  S
C251        C252   1.399       .  A
C251        H256   1.080       .  S
C252        C253   1.427       .  A
C252        C348   1.482       .  S
C253        C254   1.425       .  A
C253        H257   1.083       .  S
C254        C255   1.405       .  A
C254        C279   1.507       .  S
C255        H258   1.084       .  S
O259        C275   1.282       .  A
O259       Zn265   2.064       .  S
C260        O276   1.279       .  A
C260        O273   1.271       .  A
O261        C274   1.278       .  A
O261       Cd268   2.071       .  S
O262        C280   1.276       .  A
O262       Cd271   2.036       .  S
O263        C277   1.280       .  A
O263       Cd267   2.082       .  S
O264        C275   1.277       .  A
O264       Cd267   2.088       .  S
Zn265       O276   2.043       .  S
Zn265       O278   2.091       .  S
Zn265       O270   1.964       .  S
O266        C277   1.274       .  A
O266       Cd271   2.107       .  S
Cd267       O269   2.136       .  S
Cd267       O270   2.005       .  S
Cd268       O272   2.083       .  S
Cd268       O281   2.139       .  S
Cd268       O270   1.998       .  S
O269        C279   1.280       .  A
O270       Cd271   2.000       .  S
Cd271       O273   2.066       .  S
O272        C279   1.282       .  A
C274        O278   1.282       .  A
C280        O281   1.281       .  A
C282        C283   1.398       .  A
C282        C287   1.397       .  A
C282        C442   1.485       .  S
C283        C284   1.398       .  A
C283        H288   1.084       .  S
C284        C285   1.423       .  A
C284        C394   1.485       .  S
C285        C286   1.424       .  A
C285        H289   1.082       .  S
C286        C287   1.402       .  A
C286        C292   1.488       .  S
C287        H290   1.085       .  S
O291        C307   1.282       .  A
O291       Zn297   2.070       .  S
C292        O308   1.282       .  A
C292        O305   1.279       .  A
O293        C306   1.268       .  A
O293       Cd300   2.029       .  S
O294        C312   1.281       .  A
O294       Cd303   2.155       .  S
O295        C309   1.279       .  A
O295       Cd299   2.128       .  S
O296        C307   1.274       .  A
O296       Cd299   2.061       .  S
Zn297       O308   2.084       .  S
Zn297       O310   2.081       .  S
Zn297       O302   1.981       .  S
O298        C309   1.283       .  A
O298       Cd303   2.082       .  S
Cd299       O301   2.095       .  S
Cd299       O302   2.023       .  S
Cd300       O304   2.065       .  S
Cd300       O313   2.015       .  S
Cd300       O302   1.974       .  S
O301        C311   1.278       .  A
O302       Cd303   2.014       .  S
Cd303       O305   2.087       .  S
O304        C311   1.271       .  A
C306        O310   1.280       .  A
C307        C325   1.473       .  S
C312        O313   1.269       .  A
C314        C315   1.391       .  A
C314        C319   1.406       .  A
C314        C405   1.489       .  S
C315        C316   1.396       .  A
C315        H320   1.085       .  S
C316        C317   1.420       .  A
C316        C333   1.481       .  S
C317        C318   1.427       .  A
C317        H321   1.083       .  S
C318        C319   1.411       .  A
C318        C376   1.507       .  S
C319        H322   1.082       .  S
C323        C324   1.392       .  A
C323        C328   1.408       .  A
C323        C517   1.499       .  S
C324        C325   1.398       .  A
C324        H329   1.078       .  S
C325        C326   1.416       .  A
C326        C327   1.417       .  A
C326        H330   1.083       .  S
C327        C328   1.399       .  A
C327        C347   1.481       .  S
C328        H331   1.082       .  S
O332        C348   1.281       .  A
O332       Zn338   2.069       .  S
C333        O349   1.282       .  A
C333        O346   1.272       .  A
O334        C347   1.280       .  A
O334       Cd341   2.072       .  S
O335        C353   1.276       .  A
O335       Cd344   2.049       .  S
O336        C350   1.284       .  A
O336       Cd340   2.086       .  S
O337        C348   1.277       .  A
O337       Cd340   2.087       .  S
Zn338       O349   2.072       .  S
Zn338       O351   2.082       .  S
Zn338       O343   1.963       .  S
O339        C350   1.272       .  A
O339       Cd344   2.077       .  S
Cd340       O342   2.149       .  S
Cd340       O343   2.004       .  S
Cd341       O345   2.067       .  S
Cd341       O354   2.123       .  S
Cd341       O343   1.988       .  S
O342        C352   1.283       .  A
O343       Cd344   2.003       .  S
Cd344       O346   2.077       .  S
O345        C352   1.277       .  A
C347        O351   1.283       .  A
C353        O354   1.278       .  A
O355        C371   1.279       .  A
O355       Zn361   2.059       .  S
C356        O372   1.277   1_545  A
C356        O369   1.279   1_545  A
O357        C370   1.273       .  A
O357       Cd364   2.075       .  S
O358        C376   1.285       .  A
O358       Cd367   2.116       .  S
O359        C373   1.280       .  A
O359       Cd363   2.078       .  S
O360        C371   1.273       .  A
O360       Cd363   2.075       .  S
Zn361       O372   2.028       .  S
Zn361       O374   2.053       .  S
Zn361       O366   1.956       .  S
O362        C373   1.281       .  A
O362       Cd367   2.120       .  S
Cd363       O365   2.138       .  S
Cd363       O366   2.029       .  S
Cd364       O368   2.027       .  S
Cd364       O377   2.106       .  S
Cd364       O366   1.995       .  S
O365        C375   1.279       .  A
O366       Cd367   2.016       .  S
Cd367       O369   2.108       .  S
O368        C375   1.274       .  A
C370        O374   1.279       .  A
C376        O377   1.277       .  A
O378        C394   1.284       .  A
O378       Zn384   2.097       .  S
C379        O395   1.280       .  A
C379        O392   1.282       .  A
O380        C393   1.274       .  A
O380       Cd387   2.074       .  S
O381        C399   1.283       .  A
O381       Cd390   2.121       .  S
O382        C396   1.282       .  A
O382       Cd386   2.085       .  S
O383        C394   1.275       .  A
O383       Cd386   2.070       .  S
Zn384       O395   2.026       .  S
Zn384       O397   2.064       .  S
Zn384       O389   1.948       .  S
O385        C396   1.279       .  A
O385       Cd390   2.123       .  S
Cd386       O388   2.119       .  S
Cd386       O389   1.995       .  S
Cd387       O391   2.063       .  S
Cd387       O400   2.065       .  S
Cd387       O389   1.972       .  S
O388        C398   1.280       .  A
O389       Cd390   2.016       .  S
Cd390       O392   2.111       .  S
O391        C398   1.278       .  A
C393        O397   1.279       .  A
C399        O400   1.274       .  A
C401        C402   1.404       .  A
C401        C406   1.400       .  A
C401        H411   1.079       .  S
C402        C403   1.414   1_545  A
C402        C407   1.478       .  S
C403        C404   1.396       .  A
C403        N408   1.433       .  S
C404        C405   1.406       .  A
C404        H409   1.083       .  S
C405        C406   1.410   1_565  A
C406        N410   1.433       .  S
C407        C412   1.410       .  A
C407        C416   1.403       .  A
N408        O423   1.262       .  A
N408        O424   1.262       .  A
N410        O421   1.261       .  A
N410        O422   1.262       .  A
C412        C413   1.401       .  A
C412        N417   1.431       .  S
C413        C414   1.408       .  A
C413        H418   1.084       .  S
C414        C415   1.412   1_545  A
C415        C416   1.390   1_565  A
C415        N419   1.430       .  S
C416        H420   1.085       .  S
N417        O427   1.261       .  A
N417        O428   1.262       .  A
N419        O425   1.262       .  A
N419        O426   1.262       .  A
C429        C430   1.404       .  A
C429        C434   1.401       .  A
C429        H439   1.077       .  S
C430        C431   1.411       .  A
C430        C435   1.475       .  S
C431        C432   1.390       .  A
C431        N436   1.433       .  S
C432        C433   1.406       .  A
C432        H437   1.083       .  S
C433        C434   1.409       .  A
C434        N438   1.434       .  S
C435        C440   1.412       .  A
C435        C444   1.403       .  A
N436        O451   1.262       .  A
N436        O452   1.263       .  A
N438        O449   1.261       .  A
N438        O450   1.262       .  A
C440        C441   1.390       .  A
C440        N445   1.433       .  S
C441        C442   1.402       .  A
C441        H446   1.083       .  S
C442        C443   1.417       .  A
C443        C444   1.404       .  A
C443        N447   1.438       .  S
C444        H448   1.084       .  S
N445        O455   1.261       .  A
N445        O456   1.262       .  A
N447        O453   1.263       .  A
N447        O454   1.262       .  A
C457        C458   1.406       .  A
C457        C462   1.407       .  A
C457        H467   1.083       .  S
C458        C459   1.407       .  A
C458        C463   1.481       .  S
C459        C460   1.386       .  A
C459        N464   1.430       .  S
C460        C461   1.409       .  A
C460        H465   1.080       .  S
C461        C462   1.419       .  A
C462        N466   1.438       .  S
C463        C468   1.415       .  A
C463        C472   1.405       .  A
N464        O479   1.262       .  A
N464        O480   1.262       .  A
N466        O477   1.263       .  A
N466        O478   1.263       .  A
C468        C469   1.385       .  A
C468        N473   1.433       .  S
C469        C470   1.404       .  A
C469        H474   1.084       .  S
C470        C471   1.417       .  A
C471        C472   1.402       .  A
C471        N475   1.431       .  S
C472        H476   1.083       .  S
N473        O483   1.262       .  A
N473        O484   1.262       .  A
N475        O481   1.260       .  A
N475        O482   1.262       .  A
C485        C486   1.403       .  A
C485        C490   1.398       .  A
C485        H495   1.084       .  S
C486        C487   1.411       .  A
C486        C491   1.484       .  S
C487        C488   1.406       .  A
C487        N492   1.439       .  S
C488        C489   1.412       .  A
C488        H493   1.083       .  S
C489        C490   1.415       .  A
C490        N494   1.431       .  S
C491        C496   1.415       .  A
C491        C500   1.404       .  A
N492        O507   1.263   1_455  A
N492        O508   1.263       .  A
N494        O505   1.262       .  A
N494        O506   1.262       .  A
C496        C497   1.394       .  A
C496        N501   1.434       .  S
C497        C498   1.408       .  A
C497        H502   1.084       .  S
C498        C499   1.403       .  A
C499        C500   1.399       .  A
C499        N503   1.431       .  S
C500        H504   1.080       .  S
N501        O511   1.262       .  A
N501        O512   1.262       .  A
N503        O509   1.261       .  A
N503        O510   1.262   1_455  A
C513        C514   1.397       .  A
C513        C518   1.389       .  A
C513        H523   1.077       .  S
C514        C515   1.429       .  A
C514        C519   1.482       .  S
C515        C516   1.400       .  A
C515        N520   1.440       .  S
C516        C517   1.402       .  A
C516        H521   1.083       .  S
C517        C518   1.417       .  A
C518        N522   1.431       .  S
C519        C524   1.426       .  A
C519        C528   1.399       .  A
N520        O535   1.260       .  A
N520        O536   1.262       .  A
N522        O533   1.262       .  A
N522        O534   1.263       .  A
C524        C525   1.399       .  A
C524        N529   1.435       .  S
C525        C526   1.398       .  A
C525        H530   1.084       .  S
C526        C527   1.412       .  A
C527        C528   1.388       .  A
C527        N531   1.433       .  S
C528        H532   1.083       .  S
N529        O539   1.261       .  A
N529        O540   1.259   1_554  A
N531        O537   1.262       .  A
N531        O538   1.262       .  A
C541        C542   1.402       .  A
C541        C546   1.403       .  A
C541        H551   1.084       .  S
C542        C543   1.407       .  A
C542        C547   1.468       .  S
C543        C544   1.389       .  A
C543        N548   1.436       .  S
C544        C545   1.408       .  A
C544        H549   1.083       .  S
C545        C546   1.417       .  A
C546        N550   1.438       .  S
C547        C552   1.404       .  A
C547        C556   1.403       .  A
N548        O563   1.262       .  A
N548        O564   1.263       .  A
N550        O561   1.263       .  A
N550        O562   1.263       .  A
C552        C553   1.389       .  A
C552        N557   1.431       .  S
C553        C554   1.410       .  A
C553        H558   1.084       .  S
C554        C555   1.408       .  A
C555        C556   1.395       .  A
C555        N559   1.438       .  S
C556        H560   1.072       .  S
N557        O567   1.262       .  A
N557        O568   1.262       .  A
N559        O565   1.262       .  A
N559        O566   1.263       .  A
C569        C570   1.405   1_655  A
C569        C574   1.405       .  A
C569        H579   1.084       .  S
C570        C571   1.410       .  A
C570        C575   1.477   1_456  S
C571        C572   1.389       .  A
C571        N576   1.432   1_556  S
C572        C573   1.405       .  A
C572        H577   1.083       .  S
C573        C574   1.414   1_455  A
C574        N578   1.435       .  S
C575        C580   1.409       .  A
C575        C584   1.406   1_655  A
N576        O591   1.262       .  A
N576        O592   1.262       .  A
N578        O589   1.263       .  A
N578        O590   1.262       .  A
C580        C581   1.387       .  A
C580        N585   1.432       .  S
C581        C582   1.407       .  A
C581        H586   1.082       .  S
C582        C583   1.417   1_655  A
C583        C584   1.407       .  A
C583        N587   1.438       .  S
C584        H588   1.083       .  S
N585        O595   1.262       .  A
N585        O596   1.263   1_554  A
N587        O593   1.263       .  A
N587        O594   1.263       .  A
C597        C598   1.399       .  A
C597        C602   1.391       .  A
C597        H607   1.085       .  S
C598        C599   1.412       .  A
C598        C603   1.481   1_554  S
C599        C600   1.407       .  A
C599        N604   1.437   1_455  S
C600        C601   1.406       .  A
C600        H605   1.083   1_455  S
C601        C602   1.419       .  A
C602        N606   1.433       .  S
C603        C608   1.413   1_455  A
C603        C612   1.406       .  A
N604        O619   1.263       .  A
N604        O620   1.263       .  A
N606        O617   1.262       .  A
N606        O618   1.262       .  A
C608        C609   1.390       .  A
C608        N613   1.433       .  S
C609        C610   1.406   1_655  A
C609        H614   1.083       .  S
C610        C611   1.416       .  A
C611        C612   1.407       .  A
C611        N615   1.436       .  S
C612        H616   1.084       .  S
N613        O623   1.262   1_556  A
N613        O624   1.262       .  A
N615        O621   1.262       .  A
N615        O622   1.262       .  A
C625        C626   1.405       .  A
C625        C630   1.406       .  A
C625        H635   1.084       .  S
C626        C627   1.410       .  A
C626        C631   1.484   1_455  S
C627        C628   1.389       .  A
C627        N632   1.431       .  S
C628        C629   1.407       .  A
C628        H633   1.082       .  S
C629        C630   1.417       .  A
C630        N634   1.436       .  S
C631        C636   1.412       .  A
C631        C640   1.403       .  A
N632        O647   1.262   1_545  A
N632        O648   1.262   1_455  A
N634        O645   1.263       .  A
N634        O646   1.262       .  A
C636        C637   1.394       .  A
C636        N641   1.432       .  S
C637        C638   1.406       .  A
C637        H642   1.082       .  S
C638        C639   1.419       .  A
C639        C640   1.402       .  A
C639        N643   1.441       .  S
C640        H644   1.081       .  S
N641        O651   1.262       .  A
N641        O652   1.262   1_655  A
N643        O649   1.263   1_545  A
N643        O650   1.262       .  A
C653        C654   1.405       .  A
C653        C658   1.405       .  A
C653        H663   1.083       .  S
C654        C655   1.407       .  A
C654        C659   1.479       .  S
C655        C656   1.392       .  A
C655        N660   1.435   1_545  S
C656        C657   1.413       .  A
C656        H661   1.080   1_545  S
C657        C658   1.416       .  A
C658        N662   1.439       .  S
C659        C664   1.409       .  A
C659        C668   1.404   1_655  A
N660        O675   1.262       .  A
N660        O676   1.263       .  A
N662        O673   1.263       .  A
N662        O674   1.262       .  A
C664        C665   1.393   1_655  A
C664        N669   1.434       .  S
C665        C666   1.408       .  A
C665        H670   1.083       .  S
C666        C667   1.417       .  A
C667        C668   1.401       .  A
C667        N671   1.437       .  S
C668        H672   1.081   1_455  S
N669        O679   1.262       .  A
N669        O680   1.262       .  A
N671        O677   1.263   1_545  A
N671        O678   1.262       .  A
C681        C682   1.412   1_554  A
C681        C686   1.396       .  A
C681        H691   1.084       .  S
C682        C683   1.415       .  A
C682        C687   1.487       .  S
C683        C684   1.397       .  A
C683        N688   1.430       .  S
C684        C685   1.400       .  A
C684        H689   1.085   1_545  S
C685        C686   1.403   1_556  A
C686        N690   1.435       .  S
C687        C692   1.416   1_556  A
C687        C696   1.407       .  A
N688        O703   1.262       .  A
N688        O704   1.261   1_545  A
N690        O701   1.262       .  A
N690        O702   1.262       .  A
C692        C693   1.397       .  A
C692        N697   1.438       .  S
C693        C694   1.405   1_554  A
C693        H698   1.077       .  S
C694        C695   1.414       .  A
C695        C696   1.406       .  A
C695        N699   1.441       .  S
C696        H700   1.075       .  S
N697        O707   1.263       .  A
N697        O708   1.262       .  A
N699        O705   1.263       .  A
N699        O706   1.263       .  A
C709        C710   1.395   1_556  A
C709        C714   1.390       .  A
C709        H719   1.085       .  S
C710        C711   1.409       .  A
C710        C715   1.475       .  S
C711        C712   1.403       .  A
C711        N716   1.432       .  S
C712        C713   1.413       .  A
C712        H717   1.084       .  S
C713        C714   1.423   1_554  A
C714        N718   1.430       .  S
C715        C720   1.417       .  A
C715        C724   1.402       .  A
N716        O731   1.261       .  A
N716        O732   1.262       .  A
N718        O729   1.263       .  A
N718        O730   1.261       .  A
C720        C721   1.399       .  A
C720        N725   1.436       .  S
C721        C722   1.404       .  A
C721        H726   1.084       .  S
C722        C723   1.404       .  A
C723        C724   1.393       .  A
C723        N727   1.426   1_554  S
C724        H728   1.077       .  S
N725        O735   1.262       .  A
N725        O736   1.262       .  A
N727        O733   1.261       .  A
N727        O734   1.262   1_546  A
