geometry optimzed in LAMMPS
_audit_creation_date              2020-11-30 
_audit_creation_method            'lammps2cif' 
_symmetry_space_group_name_H-M    'P1' 
_symmetry_Int_Tables_number       1 
_symmetry_cell_setting            triclinic 
loop_ 
_symmetry_equiv_pos_as_xyz 
  x,y,z 
_cell_length_a                    36.70571624 
_cell_length_b                    23.41835380649204 
_cell_length_c                    32.12863643124745 
_cell_angle_alpha                 90.24712975733355 
_cell_angle_beta                  105.61920071676371 
_cell_angle_gamma                 89.75765292375638 
loop_ 
_atom_site_label 
_atom_site_type_symbol 
_atom_site_fract_x 
_atom_site_fract_y 
_atom_site_fract_z 
_atom_site_charge 
C1          C  0.23303311  0.20857575  0.27258041     0.85600
C2          C  0.24822792  0.19512712  0.32147346    -0.54600
C3          C  0.23492551  0.14502557  0.33416072     0.08500
C4          C  0.20746018  0.11281167  0.29704221     0.19500
C5          C  0.24268065  0.15322883  0.25005395    -0.55300
C6          C  0.23042697  0.10212042  0.26346793     0.08600
C7          C  0.18974424  0.20620340  0.26427451    -0.54900
C8          C  0.17604568  0.15778309  0.27821720     0.09200
H9          H  0.26738714  0.22325342  0.34402819     0.13700
H10         H  0.19600219  0.07357811  0.30780512    -0.00500
H11         H  0.25952805  0.15360734  0.22709887     0.14000
H12         H  0.17186905  0.24317859  0.25311206     0.13800
C13         C  0.24334929  0.04173748  0.25023284     0.85600
C14         C  0.22718133  0.02803395  0.20155998    -0.54600
C15         C  0.23990936  0.31091892  0.18836272     0.08500
C16         C  0.26810391  0.27862811  0.22483174     0.19500
C17         C  0.23421567  0.98676898  0.27319097    -0.55300
C18         C  0.24610202  0.26861955  0.25938752     0.08600
C19         C  0.28651902  0.03882075  0.25735885    -0.54900
C20         C  0.29976972  0.32334473  0.24293147     0.09200
H21         H  0.20764600  0.05620657  0.17947052     0.13700
H22         H  0.27914457  0.23920763  0.21342663    -0.00500
H23         H  0.21789682  0.32101935  0.29669061     0.14000
H24         H  0.30459615  0.07554291  0.26829997     0.13800
C25         C  0.74525429  0.25354506  0.25332097     0.85600
C26         C  0.72501595  0.24753964  0.20557538    -0.54600
C27         C  0.73214862  0.19799275  0.18728995     0.08500
C28         C  0.75963075  0.15721609  0.21809785     0.19500
C29         C  0.73364366  0.19810335  0.27369285    -0.55300
C30         C  0.74084284  0.14692001  0.25513344     0.08600
C31         C  0.78759484  0.24394813  0.25574770    -0.54900
C32         C  0.79550492  0.19401233  0.23708198     0.09200
H33         H  0.70669784  0.28054066  0.18725381     0.13700
H34         H  0.76564599  0.11811521  0.20160304    -0.00500
H35         H  0.72060961  0.19860041  0.30018206     0.14000
H36         H  0.80903050  0.27595246  0.26862141     0.13800
C37         C  0.73152547  0.08705619  0.27123608     0.85600
C38         C  0.75148216  0.08122603  0.31907568    -0.54600
C39         C  0.74422675  0.36514212  0.33707501     0.08500
C40         C  0.71693502  0.32447091  0.30608943     0.19500
C41         C  0.74336370  0.36460991  0.25099487    -0.55300
C42         C  0.73603031  0.31368365  0.26940372     0.08600
C43         C  0.68908039  0.07780881  0.26844990    -0.54900
C44         C  0.68108370  0.36130004  0.28682010     0.09200
H45         H  0.76984272  0.11402559  0.33757973     0.13700
H46         H  0.71083505  0.28555836  0.32242138    -0.00500
H47         H  0.75663032  0.36472424  0.22470114     0.14000
H48         H  0.66761166  0.10979947  0.25534255     0.13800
In49       In  0.89637150  0.17033764  0.19803322     1.36900
C50         C  0.83322281  0.18247454  0.22801158     0.76700
O51         O  0.93324378  0.21877775  0.16643549    -0.61700
O52         O  0.87592018  0.24523417  0.15460296    -0.52700
C53         C  0.96675322  0.16685921  0.25281585     0.69400
O54         O  0.94737274  0.12220743  0.24090728    -0.47500
C55         C  0.89216473  0.09415073  0.13587045     0.74100
O56         O  0.86016615  0.21772802  0.23583920    -0.59400
O57         O  0.87928675  0.14379755  0.12819315    -0.49500
O58         O  0.84023343  0.13833548  0.20887763    -0.55800
C59         C  0.90755382  0.25195985  0.14674057     0.84300
O60         O  0.94811800  0.21235353  0.24233462    -0.57700
O61         O  0.90212616  0.08049734  0.17537777    -0.61000
In62       In  0.08033218  0.16951126  0.32641576     1.36900
C63         C  0.13888941  0.15912663  0.28958884     0.76700
O64         O  0.05395518  0.21559580  0.37215207    -0.61700
O65         O  0.10362244  0.25167387  0.36208990    -0.52700
C66         C  0.00797429  0.16687224  0.27572209     0.69400
O67         O  0.02740151  0.21198951  0.28369190    -0.47500
C68         C  0.09260090  0.09630076  0.39000184     0.74100
O69         O  0.11713840  0.20214778  0.28402644    -0.59400
O70         O  0.11213604  0.14079281  0.39260348    -0.49500
O71         O  0.12822109  0.11945565  0.30974183    -0.55800
C72         C  0.07856996  0.25397456  0.38243058     0.84300
O73         O  0.02686108  0.12228064  0.28897370    -0.57700
O74         O  0.06979355  0.08641224  0.35362253    -0.61000
In75       In  0.21305167  0.25173769  0.06072365     1.36900
C76         C  0.22936290  0.28974193  0.14296405     0.76700
O77         O  0.17496234  0.18089010  0.02889544    -0.61700
O78         O  0.22820807  0.16065439  0.07278227    -0.52700
C79         C  0.15346396  0.30488320  0.51437826     0.69400
O80         O  0.15257460  0.27332949  0.04607952    -0.47500
C81         C  0.26012631  0.94164155  0.01368038     0.74100
O82         O  0.21279446  0.32007054  0.11112617    -0.59400
O83         O  0.23443598  0.90554809  0.00250256    -0.49500
O84         O  0.23702311  0.23982076  0.13284761    -0.55800
C85         C  0.20197806  0.14617209  0.04014779     0.84300
O86         O  0.18552965  0.31311035  0.50874996    -0.57700
O87         O  0.26699997  0.95742207  0.05267641    -0.61000
In88       In  0.25868581  0.08449906  0.46115149     1.36900
C89         C  0.24405092  0.12380821  0.37946125     0.76700
O90         O  0.24145413  0.99400915  0.45006732    -0.61700
O91         O  0.29621390  0.01202268  0.99124978    -0.52700
C92         C  0.31956782  0.13404893  0.00746484     0.69400
O93         O  0.31928612  0.10264433  0.47514167    -0.47500
C94         C  0.21188315  0.10944215  0.00844393     0.74100
O95         O  0.26093128  0.15317125  0.41182310    -0.59400
O96         O  0.23876075  0.07521463  0.02037564    -0.49500
O97         O  0.23482085  0.07459397  0.38887445    -0.55800
C98         C  0.26861501  0.97847644  0.98137413     0.84300
O99         O  0.28789425  0.14437485  0.01383148    -0.57700
O100        O  0.20432469  0.12339128  0.46906715    -0.60600
C101        C  0.94659784  0.34497372  0.07122246     0.85600
C102        C  0.94751464  0.29873427  0.10551688    -0.54600
C103        C  0.91368036  0.29257372  0.11523270     0.08500
C104        C  0.88262751  0.33250029  0.09060154     0.19500
C105        C  0.91372445  0.32987274  0.03283993    -0.55300
C106        C  0.88095350  0.32254585  0.04273946     0.08600
C107        C  0.93354711  0.06549409  0.09111786    -0.54900
C108        C  0.90022301  0.05823436  0.10199228     0.09200
H109        H  0.97256295  0.27425221  0.12132431     0.13700
H110        H  0.85496326  0.32764706  0.09811559    -0.00500
H111        H  0.91589396  0.32703360  0.99974933     0.14000
H112        H  0.95144123  0.10245106  0.10177459     0.13800
C113        C  0.05271713  0.35056913  0.46782814     0.85600
C114        C  0.04777511  0.30285785  0.43331519    -0.54600
C115        C  0.07815212  0.29624094  0.41660447     0.08500
C116        C  0.11085913  0.33725556  0.43649163     0.19500
C117        C  0.08911384  0.33653683  0.50153819    -0.55300
C118        C  0.11911963  0.32863810  0.48587008     0.08600
C119        C  0.06167472  0.07008129  0.44443625    -0.54900
C120        C  0.09198375  0.06286497  0.42776349     0.09200
H121        H  0.02224583  0.27745380  0.42257187     0.13700
H122        H  0.13597251  0.33175439  0.42377414    -0.00500
H123        H  0.09067809  0.33067940  0.03558627     0.14000
H124        H  0.04207129  0.10533267  0.43429748     0.13800
In125      In  0.69831692  0.17201687  0.05779312     1.36900
C126        C  0.71735063  0.18846212  0.14100424     0.76700
O127        O  0.72441317  0.08813129  0.06185686    -0.61700
O128        O  0.75636202  0.16170404  0.05209823    -0.52700
C129        C  0.63006709  0.15580781  0.51367734     0.69400
O130        O  0.63751354  0.18976134  0.04547229    -0.47500
C131        C  0.70670153  0.24052714  0.99836242     0.74100
O132        O  0.71413577  0.22899197  0.11439827    -0.59400
O133        O  0.70415207  0.18757902  0.99265518    -0.49500
O134        O  0.70784167  0.13971011  0.12495641    -0.55800
C135        C  0.75211399  0.10830031  0.05032598     0.84300
O136        O  0.65575895  0.12157333  0.51114678    -0.57700
O137        O  0.70197219  0.25947677  0.03356646    -0.61000
In138      In  0.77820982  0.33702380  0.46568643     1.36900
C139        C  0.75922850  0.35483812  0.38306896     0.76700
O140        O  0.75185293  0.25354886  0.46089830    -0.61700
O141        O  0.72015680  0.32783194  0.97097006    -0.52700
C142        C  0.84624137  0.31810358  0.00889895     0.69400
O143        O  0.83906574  0.35139959  0.47691149    -0.47500
C144        C  0.76990547  0.07364835  0.02487429     0.74100
O145        O  0.76377224  0.39517528  0.41019540    -0.59400
O146        O  0.77245131  0.02077925  0.03079463    -0.49500
O147        O  0.76743796  0.30542971  0.39831096    -0.55800
C148        C  0.72428990  0.27438804  0.97261758     0.84300
O149        O  0.82013722  0.28552914  0.01212611    -0.57700
O150        O  0.77483688  0.09177507  0.48970084    -0.61000
C151        C  0.52914711  0.17930939  0.45072988     0.85600
C152        C  0.52921656  0.12989882  0.41875663    -0.54600
C153        C  0.56287070  0.12371156  0.40866730     0.08500
C154        C  0.59315864  0.16603269  0.43131966     0.19500
C155        C  0.56246514  0.16810101  0.48953662    -0.55300
C156        C  0.59529842  0.16029428  0.47970845     0.08600
C157        C  0.54053964  0.23120315  0.42777936    -0.54900
C158        C  0.57407124  0.22364371  0.41728881     0.09200
H159        H  0.50457785  0.10422065  0.40376923     0.13700
H160        H  0.62076373  0.16090403  0.42364310    -0.00500
H161        H  0.56036269  0.16720728  0.02269407     0.14000
H162        H  0.52185639  0.26709884  0.41593738     0.13800
C163        C  0.42120955  0.17623323  0.05216740     0.85600
C164        C  0.42696883  0.12927003  0.08689789    -0.54600
C165        C  0.39700011  0.12307331  0.10420775     0.08500
C166        C  0.36403374  0.16413773  0.08507445     0.19500
C167        C  0.38441353  0.16223610  0.01913197    -0.55300
C168        C  0.35481562  0.15531533  0.03564005     0.08600
C169        C  0.41243485  0.22981298  0.07549219    -0.54900
C170        C  0.38282252  0.22289644  0.09327323     0.09200
H171        H  0.45266908  0.10396550  0.09727857     0.13700
H172        H  0.33934660  0.15906374  0.09853477    -0.00500
H173        H  0.38210796  0.15671050  0.98485388     0.14000
H174        H  0.43117569  0.26627412  0.08364068     0.13800
In175      In  0.57928475  0.33617440  0.32321872     1.36900
C176        C  0.64307790  0.34919663  0.29483339     0.76700
O177        O  0.54351577  0.04799306  0.35867296    -0.61700
O178        O  0.59910282  0.07913013  0.36575848    -0.52700
C179        C  0.50916366  0.33205291  0.26789285     0.69400
O180        O  0.52944977  0.28791666  0.27866180    -0.47500
C181        C  0.58286454  0.25895775  0.38381316     0.74100
O182        O  0.61545722  0.38353406  0.28572674    -0.59400
O183        O  0.59726352  0.30752510  0.39225662    -0.49500
O184        O  0.63640178  0.30533869  0.31419801    -0.55800
C185        C  0.56857657  0.08313495  0.37656681     0.84300
O186        O  0.52681502  0.37799002  0.27970793    -0.57700
O187        O  0.57209280  0.24630302  0.34408065    -0.61000
In188      In  0.39543604  0.33125729  0.19436986     1.36900
C189        C  0.33679656  0.32357613  0.23123180     0.76700
O190        O  0.42185290  0.04284102  0.14854710    -0.61700
O191        O  0.37192025  0.07918760  0.15859491    -0.52700
C192        C  0.46798919  0.33077151  0.24480227     0.69400
O193        O  0.44774521  0.37520242  0.23694392    -0.47500
C194        C  0.38237344  0.25732221  0.13077441     0.74100
O195        O  0.35808082  0.36676466  0.23533994    -0.59400
O196        O  0.36504457  0.30414129  0.12732510    -0.49500
O197        O  0.34791484  0.28249691  0.21243740    -0.55800
C198        C  0.39704243  0.08124011  0.13836903     0.84300
O199        O  0.44990834  0.28561973  0.23141417    -0.57700
O200        O  0.40330320  0.24566708  0.16790295    -0.61000
C201        C  0.45141002  0.17882171  0.02839137    -0.06300
C202        C  0.46548463  0.23116967  0.01829489    -0.33800
C203        C  0.48780611  0.23357974  0.48938342     0.35500
C204        C  0.49489032  0.18351327  0.46791605    -0.06700
C205        C  0.48043931  0.13147294  0.97815619    -0.33700
C206        C  0.45949270  0.12867845  0.00800449     0.35400
H207        H  0.45924154  0.27086468  0.53213659     0.15800
O208        O  0.50377521  0.28486516  0.48391192    -0.61200
H209        H  0.48764335  0.09130642  0.96559205     0.15800
O210        O  0.44683542  0.07623420  0.01700889    -0.61300
H211        H  0.42517878  0.06684793  0.99194999     0.42800
H212        H  0.52720676  0.28744513  0.50801776     0.42700
C213        C  0.98078439  0.34879534  0.05392276    -0.06300
C214        C  0.98968788  0.06810896  0.03816499    -0.33800
C215        C  0.01085564  0.07067429  0.00805645     0.35500
C216        C  0.02215888  0.35300359  0.49124488    -0.06700
C217        C  0.01362565  0.30065949  0.50762385    -0.33700
C218        C  0.99392516  0.29812687  0.03871008     0.35400
H219        H  0.97893362  0.10782417  0.04745249     0.15800
O220        O  0.02005483  0.12341189  0.99573589    -0.61200
H221        H  0.02388070  0.26081056  0.49765196     0.15800
O222        O  0.98593416  0.24525886  0.05225515    -0.61300
H223        H  0.96403098  0.23096987  0.52930479     0.42800
H224        H  0.04361134  0.13435695  0.01773111     0.42700
C225        C  0.23303214  0.20857010  0.77258351     0.85600
C226        C  0.24822704  0.19511995  0.82147643    -0.54600
C227        C  0.23492417  0.14501819  0.83416298     0.08500
C228        C  0.20745804  0.11280635  0.79704430     0.19500
C229        C  0.24267893  0.15322320  0.75005631    -0.55300
C230        C  0.23042471  0.10211514  0.76347028     0.08600
C231        C  0.18974344  0.20619924  0.76427778    -0.54900
C232        C  0.17604437  0.15777895  0.77821957     0.09200
H233        H  0.26738691  0.22324500  0.84403153     0.13700
H234        H  0.19599947  0.07357287  0.80780661    -0.00500
H235        H  0.25952665  0.15360102  0.72710147     0.14000
H236        H  0.17186875  0.24317518  0.75311583     0.13800
C237        C  0.24334710  0.04173218  0.75023651     0.85600
C238        C  0.22717859  0.02802792  0.70156412    -0.54600
C239        C  0.23990359  0.31091010  0.68836400     0.08500
C240        C  0.26810000  0.27862037  0.72483190     0.19500
C241        C  0.23421415  0.98676379  0.77319561    -0.55300
C242        C  0.24610107  0.26861361  0.75939046     0.08600
C243        C  0.28651680  0.03881654  0.75736169    -0.54900
C244        C  0.29976649  0.32333645  0.74292850     0.09200
H245        H  0.20764327  0.05620019  0.67947432     0.13700
H246        H  0.27913964  0.23919935  0.71342652    -0.00500
H247        H  0.21789885  0.32101571  0.79669574     0.14000
H248        H  0.30459347  0.07553945  0.76830175     0.13800
C249        C  0.74525584  0.25354297  0.75332622     0.85600
C250        C  0.72501664  0.24753203  0.70558142    -0.54600
C251        C  0.73215056  0.19798396  0.68729827     0.08500
C252        C  0.75963439  0.15721127  0.71810772     0.19500
C253        C  0.73364729  0.19810269  0.77370185    -0.55300
C254        C  0.74084699  0.14691808  0.75514449     0.08600
C255        C  0.78759639  0.24394802  0.75575161    -0.54900
C256        C  0.79550770  0.19401088  0.73708836     0.09200
H257        H  0.70669800  0.28053126  0.68725827     0.13700
H258        H  0.76565065  0.11810981  0.70161421    -0.00500
H259        H  0.72061303  0.19860168  0.80019097     0.14000
H260        H  0.80903109  0.27595493  0.76862211     0.13800
C261        C  0.73152753  0.08705551  0.77124716     0.85600
C262        C  0.75148223  0.08122312  0.81908714    -0.54600
C263        C  0.74422711  0.36514553  0.83707508     0.08500
C264        C  0.71693530  0.32447265  0.80609145     0.19500
C265        C  0.74336258  0.36460877  0.75099451    -0.55300
C266        C  0.73603035  0.31368320  0.76940564     0.08600
C267        C  0.68908191  0.07781011  0.76845851    -0.54900
C268        C  0.68108331  0.36130090  0.78682184     0.09200
H269        H  0.76984362  0.11402096  0.83759214     0.13700
H270        H  0.71083633  0.28556100  0.82242517    -0.00500
H271        H  0.75662895  0.36472243  0.72470049     0.14000
H272        H  0.66761419  0.10980185  0.75535032     0.13800
In273      In  0.89637268  0.17034007  0.69803368     1.36900
C274        C  0.83322549  0.18247610  0.72801597     0.76700
O275        O  0.93324590  0.21877689  0.66643510    -0.61700
O276        O  0.87592177  0.24523260  0.65460121    -0.52700
C277        C  0.96675390  0.16686584  0.75281732     0.69400
O278        O  0.94737242  0.12221410  0.74091270    -0.47500
C279        C  0.89216626  0.09415668  0.63586796     0.74100
O280        O  0.86016124  0.21774212  0.73582563    -0.59400
O281        O  0.87927615  0.14379746  0.62819292    -0.49500
O282        O  0.84024336  0.13832675  0.70889807    -0.55800
C283        C  0.90755564  0.25195819  0.64673951     0.84300
O284        O  0.94811989  0.21236036  0.74233180    -0.57700
O285        O  0.90213888  0.08050556  0.67537532    -0.61000
In286      In  0.08033187  0.16951168  0.82641659     1.36900
C287        C  0.13888826  0.15912331  0.78959048     0.76700
O288        O  0.05395275  0.21560094  0.87214752    -0.61700
O289        O  0.10362655  0.25166868  0.86209459    -0.52700
C290        C  0.00797480  0.16687716  0.77572353     0.69400
O291        O  0.02740507  0.21199221  0.78368673    -0.47500
C292        C  0.09259396  0.09629897  0.88999977     0.74100
O293        O  0.11713710  0.20214428  0.78402587    -0.59400
O294        O  0.11213079  0.14078996  0.89260514    -0.49500
O295        O  0.12822034  0.11945379  0.80974509    -0.55800
C296        C  0.07857081  0.25397421  0.88243042     0.84300
O297        O  0.02685834  0.12228492  0.78898145    -0.57700
O298        O  0.06978922  0.08641254  0.85361848    -0.61000
In299      In  0.21304411  0.25173264  0.56072430     1.36900
C300        C  0.22935539  0.28973269  0.64296543     0.76700
O301        O  0.17495387  0.18089345  0.52888036    -0.61700
O302        O  0.22818634  0.16064461  0.57278784    -0.52700
C303        C  0.15346711  0.30488083  0.01437603     0.69400
O304        O  0.15256937  0.27333211  0.54608124    -0.47500
C305        C  0.26012807  0.94164782  0.51367971     0.74100
O306        O  0.21277616  0.32005649  0.61112939    -0.59400
O307        O  0.23443745  0.90555465  0.50250260    -0.49500
O308        O  0.23702514  0.23981701  0.63284697    -0.55800
C309        C  0.20196527  0.14616991  0.54014229     0.84300
O310        O  0.18553218  0.31311004  0.00874684    -0.57700
O311        O  0.26700473  0.95742561  0.55267678    -0.61000
In312      In  0.25868564  0.08449090  0.96115355     1.36900
C313        C  0.24405075  0.12379853  0.87946290     0.76700
O314        O  0.24145552  0.99400078  0.95006737    -0.61700
O315        O  0.29621345  0.01203039  0.49124746    -0.52700
C316        C  0.31957218  0.13404743  0.50746019     0.69400
O317        O  0.31928554  0.10264196  0.97514934    -0.47500
C318        C  0.21188199  0.10944626  0.50844224     0.74100
O319        O  0.26093812  0.15315686  0.91182404    -0.59400
O320        O  0.23876768  0.07523367  0.52037855    -0.49500
O321        O  0.23481471  0.07458790  0.88887658    -0.55800
C322        C  0.26861444  0.97848461  0.48137313     0.84300
O323        O  0.28789991  0.14437824  0.51382920    -0.57700
O324        O  0.20432962  0.12339641  0.96907096    -0.60600
C325        C  0.94659847  0.34497626  0.57122382     0.85600
C326        C  0.94751595  0.29873551  0.60551721    -0.54600
C327        C  0.91368195  0.29257322  0.61523281     0.08500
C328        C  0.88262873  0.33250012  0.59060346     0.19500
C329        C  0.91372464  0.32987663  0.53284103    -0.55300
C330        C  0.88095397  0.32254803  0.54274114     0.08600
C331        C  0.93354968  0.06550331  0.59111502    -0.54900
C332        C  0.90022384  0.05824521  0.60198631     0.09200
H333        H  0.97256442  0.27425322  0.62132366     0.13700
H334        H  0.85496501  0.32764589  0.59811849    -0.00500
H335        H  0.91589377  0.32703891  0.49975025     0.14000
H336        H  0.95144495  0.10245840  0.60177430     0.13800
C337        C  0.05271904  0.35056725  0.96782802     0.85600
C338        C  0.04777623  0.30285626  0.93331506    -0.54600
C339        C  0.07815302  0.29623960  0.91660398     0.08500
C340        C  0.11086039  0.33725349  0.93649032     0.19500
C341        C  0.08911629  0.33653434  0.00153763    -0.55300
C342        C  0.11912168  0.32863512  0.98586873     0.08600
C343        C  0.06166342  0.07007613  0.94443076    -0.54900
C344        C  0.09197298  0.06286075  0.92775884     0.09200
H345        H  0.02224683  0.27745213  0.92257223     0.13700
H346        H  0.13597341  0.33175176  0.92377226    -0.00500
H347        H  0.09067499  0.33068197  0.53558666     0.14000
H348        H  0.04205963  0.10532732  0.93429265     0.13800
In349      In  0.69832583  0.17200375  0.55780223     1.36900
C350        C  0.71735433  0.18845086  0.64101273     0.76700
O351        O  0.72442188  0.08811924  0.56186146    -0.61700
O352        O  0.75637396  0.16169508  0.55211564    -0.52700
C353        C  0.63005609  0.15582455  0.01367177     0.69400
O354        O  0.63752207  0.18974072  0.54548025    -0.47500
C355        C  0.70670874  0.24051416  0.49837078     0.74100
O356        O  0.71413541  0.22898102  0.61440635    -0.59400
O357        O  0.70416168  0.18756591  0.49266510    -0.49500
O358        O  0.70785187  0.13969664  0.62496543    -0.55800
C359        C  0.75212449  0.10829141  0.55033567     0.84300
O360        O  0.65574658  0.12158707  0.01114171    -0.57700
O361        O  0.70197874  0.25946436  0.53357433    -0.61000
In362      In  0.77821078  0.33702989  0.96568604     1.36900
C363        C  0.75923027  0.35484339  0.88306898     0.76700
O364        O  0.75184868  0.25355853  0.96089351    -0.61700
O365        O  0.72015742  0.32781901  0.47097343    -0.52700
C366        C  0.84624128  0.31810266  0.50890177     0.69400
O367        O  0.83906638  0.35140587  0.97691177    -0.47500
C368        C  0.76991476  0.07364575  0.52487851     0.74100
O369        O  0.76377609  0.39518169  0.91019484    -0.59400
O370        O  0.77245780  0.02077470  0.53079057    -0.49500
O371        O  0.76743838  0.30543501  0.89831147    -0.55800
C372        C  0.72429401  0.27437582  0.47262348     0.84300
O373        O  0.82013706  0.28553104  0.51213273    -0.57700
O374        O  0.77482823  0.09176887  0.98969480    -0.61000
C375        C  0.52913385  0.17931296  0.95072290     0.85600
C376        C  0.52920675  0.12989702  0.91875463    -0.54600
C377        C  0.56286142  0.12371189  0.90866607     0.08500
C378        C  0.59314651  0.16603910  0.93131493     0.19500
C379        C  0.56245269  0.16811411  0.98953140    -0.55300
C380        C  0.59528656  0.16030885  0.97970395     0.08600
C381        C  0.54052303  0.23120377  0.92776696    -0.54900
C382        C  0.57405571  0.22364584  0.91727880     0.09200
H383        H  0.50456971  0.10421509  0.90376817     0.13700
H384        H  0.62075184  0.16091221  0.92363863    -0.00500
H385        H  0.56037517  0.16718977  0.52269923     0.14000
H386        H  0.52183850  0.26709767  0.91592351     0.13800
C387        C  0.42121686  0.17621982  0.55216861     0.85600
C388        C  0.42697485  0.12925752  0.58689977    -0.54600
C389        C  0.39700452  0.12306033  0.60420695     0.08500
C390        C  0.36403851  0.16412439  0.58507154     0.19500
C391        C  0.38442215  0.16222003  0.51913129    -0.55300
C392        C  0.35482252  0.15530239  0.53563734     0.08600
C393        C  0.41243979  0.22979994  0.57549182    -0.54900
C394        C  0.38282655  0.22288297  0.59327125     0.09200
H395        H  0.45267537  0.10395412  0.59728315     0.13700
H396        H  0.33935040  0.15905005  0.59853012    -0.00500
H397        H  0.38211821  0.15669405  0.48485361     0.14000
H398        H  0.43118017  0.26626141  0.58364136     0.13800
In399      In  0.57928282  0.33618293  0.82322078     1.36900
C400        C  0.64307784  0.34919940  0.79483715     0.76700
O401        O  0.54350409  0.04800980  0.85865565    -0.61700
O402        O  0.59910267  0.07911687  0.86577341    -0.52700
C403        C  0.50916128  0.33205493  0.76789667     0.69400
O404        O  0.52945074  0.28792174  0.77866374    -0.47500
C405        C  0.58285414  0.25896290  0.88380858     0.74100
O406        O  0.61545378  0.38353061  0.78571997    -0.59400
O407        O  0.59725309  0.30752952  0.89225726    -0.49500
O408        O  0.63640515  0.30535021  0.81421351    -0.55800
C409        C  0.56856956  0.08313637  0.87656556     0.84300
O410        O  0.52680932  0.37799454  0.77971315    -0.57700
O411        O  0.57208835  0.24631060  0.84407538    -0.61000
In412      In  0.39543488  0.33124221  0.69436927     1.36900
C413        C  0.33679329  0.32356356  0.73122862     0.76700
O414        O  0.42185192  0.04282345  0.64854389    -0.61700
O415        O  0.37192360  0.07918055  0.65859566    -0.52700
C416        C  0.46798702  0.33076678  0.74480523     0.69400
O417        O  0.44774047  0.37519470  0.73694395    -0.47500
C418        C  0.38237581  0.25730787  0.63077259     0.74100
O419        O  0.35808284  0.36674664  0.73534422    -0.59400
O420        O  0.36504784  0.30412776  0.62732254    -0.49500
O421        O  0.34790653  0.28248703  0.71242691    -0.55800
C422        C  0.39704470  0.08122750  0.63836790     0.84300
O423        O  0.44990910  0.28561190  0.73141842    -0.57700
O424        O  0.40330276  0.24565085  0.66790245    -0.61000
C425        C  0.45141988  0.17881118  0.52839577    -0.06300
C426        C  0.46549102  0.23116104  0.51829707    -0.33800
C427        C  0.48779668  0.23358674  0.98937807     0.35500
C428        C  0.49487665  0.18352001  0.96790798    -0.06700
C429        C  0.48045719  0.13146405  0.47816706    -0.33700
C430        C  0.45950940  0.12866774  0.50801415     0.35400
H431        H  0.45923978  0.27087321  0.03213810     0.15800
O432        O  0.50376712  0.28487078  0.98390581    -0.61200
H433        H  0.48766605  0.09129796  0.46560620     0.15800
O434        O  0.44685871  0.07622125  0.51702311    -0.61300
H435        H  0.42519961  0.06683130  0.49196773     0.42800
H436        H  0.52719979  0.28744908  0.00801046     0.42700
C437        C  0.98078514  0.34879722  0.55392472    -0.06300
C438        C  0.98969234  0.06811703  0.53816301    -0.33800
C439        C  0.01086234  0.07068100  0.50805643     0.35500
C440        C  0.02216073  0.35300070  0.99124502    -0.06700
C441        C  0.01362987  0.30065704  0.00762684    -0.33700
C442        C  0.99392322  0.29812890  0.53870900     0.35400
H443        H  0.97893672  0.10783250  0.54744841     0.15800
O444        O  0.02006329  0.12341797  0.49573668    -0.61200
H445        H  0.02388764  0.26080839  0.99765773     0.15800
O446        O  0.98593223  0.24526058  0.55225359    -0.61300
H447        H  0.96403422  0.23096604  0.02930480     0.42800
H448        H  0.04361655  0.13436568  0.51773662     0.42700
C449        C  0.23303351  0.54190937  0.27258229     0.85600
C450        C  0.24822883  0.52845699  0.32147429    -0.54600
C451        C  0.23492444  0.47835624  0.33415999     0.08500
C452        C  0.20745697  0.44614615  0.29704130     0.19500
C453        C  0.24267804  0.48656233  0.25005321    -0.55300
C454        C  0.23042287  0.43545404  0.26346596     0.08600
C455        C  0.18974444  0.53954126  0.26427804    -0.54900
C456        C  0.17604407  0.49112164  0.27821970     0.09200
H457        H  0.26738932  0.55658085  0.34402987     0.13700
H458        H  0.19599791  0.40691278  0.30780316    -0.00500
H459        H  0.25952550  0.48694043  0.22709816     0.14000
H460        H  0.17187081  0.57651875  0.25311821     0.13800
C461        C  0.24334578  0.37507008  0.25023182     0.85600
C462        C  0.22717979  0.36136489  0.20155871    -0.54600
C463        C  0.23991000  0.64424972  0.18836728     0.08500
C464        C  0.26810627  0.61196049  0.22483496     0.19500
C465        C  0.23421177  0.32010179  0.27319031    -0.55300
C466        C  0.24610546  0.60195297  0.25939196     0.08600
C467        C  0.28651578  0.37215388  0.25735930    -0.54900
C468        C  0.29977218  0.65667826  0.24293063     0.09200
H469        H  0.20764579  0.38953736  0.17946772     0.13700
H470        H  0.27914653  0.57253934  0.21343036    -0.00500
H471        H  0.21790202  0.65435496  0.29669598     0.14000
H472        H  0.30459233  0.40887674  0.26830009     0.13800
C473        C  0.74525295  0.58687601  0.25331952     0.85600
C474        C  0.72501248  0.58086307  0.20557510    -0.54600
C475        C  0.73214664  0.53131449  0.18729262     0.08500
C476        C  0.75963267  0.49054404  0.21810244     0.19500
C477        C  0.73364694  0.53143560  0.27369756    -0.55300
C478        C  0.74084798  0.48025059  0.25514175     0.08600
C479        C  0.78759326  0.57728304  0.25574341    -0.54900
C480        C  0.79550519  0.52734598  0.23708075     0.09200
H481        H  0.70669286  0.61386129  0.18725176     0.13700
H482        H  0.76564927  0.45144246  0.20160938    -0.00500
H483        H  0.72061362  0.53193466  0.30018744     0.14000
H484        H  0.80902734  0.60929091  0.26861333     0.13800
C485        C  0.73153187  0.42038757  0.27124787     0.85600
C486        C  0.75148502  0.41455927  0.31908902    -0.54600
C487        C  0.74422986  0.69847625  0.33706997     0.08500
C488        C  0.71693529  0.65780542  0.30608709     0.19500
C489        C  0.74335953  0.69794213  0.25098808    -0.55300
C490        C  0.73602771  0.64701623  0.26939919     0.08600
C491        C  0.68908612  0.41113695  0.26845763    -0.54900
C492        C  0.68108346  0.69463531  0.28681965     0.09200
H493        H  0.76984358  0.44736018  0.33759396     0.13700
H494        H  0.71083634  0.61889373  0.32242074    -0.00500
H495        H  0.75662443  0.69805575  0.22469287     0.14000
H496        H  0.66761701  0.44312599  0.25534789     0.13800
In497      In  0.89637322  0.50367556  0.19803289     1.36900
C498        C  0.83322318  0.51581139  0.22800917     0.76700
O499        O  0.93324362  0.55210852  0.16642848    -0.61700
O500        O  0.87592118  0.57856957  0.15460100    -0.52700
C501        C  0.96675203  0.50020884  0.25282226     0.69400
O502        O  0.94737205  0.45555568  0.24091815    -0.47500
C503        C  0.89217343  0.42748216  0.13587487     0.74100
O504        O  0.86016219  0.55107210  0.23582815    -0.59400
O505        O  0.87928653  0.47712388  0.12819452    -0.49500
O506        O  0.84023840  0.47166731  0.20888374    -0.55800
C507        C  0.90755395  0.58529304  0.14673615     0.84300
O508        O  0.94811732  0.54570202  0.24233309    -0.57700
O509        O  0.90214037  0.41383559  0.17538335    -0.61000
In510      In  0.08033147  0.50285536  0.32642223     1.36900
C511        C  0.13888871  0.49246880  0.28959418     0.76700
O512        O  0.05395228  0.54894531  0.37215432    -0.61700
O513        O  0.10362677  0.58501080  0.36210147    -0.52700
C514        C  0.00797254  0.50022204  0.27573074     0.69400
O515        O  0.02740186  0.54533765  0.28369718    -0.47500
C516        C  0.09259710  0.42963594  0.39000162     0.74100
O517        O  0.11713897  0.53549147  0.28403350    -0.59400
O518        O  0.11212739  0.47413427  0.39261158    -0.49500
O519        O  0.12821957  0.45279847  0.30974695    -0.55800
C520        C  0.07857041  0.58731891  0.38243633     0.84300
O521        O  0.02685721  0.45562999  0.28898593    -0.57700
O522        O  0.06979578  0.41974781  0.35361852    -0.61000
In523      In  0.21304689  0.58506574  0.06073194     1.36900
C524        C  0.22936101  0.62307058  0.14297024     0.76700
O525        O  0.17495557  0.51422391  0.02889665    -0.61700
O526        O  0.22819162  0.49397829  0.07279747    -0.52700
C527        C  0.15346339  0.63822209  0.51438068     0.69400
O528        O  0.15256989  0.60665560  0.04608405    -0.47500
C529        C  0.26013314  0.27497937  0.01367268     0.74100
O530        O  0.21276847  0.65338642  0.11113532    -0.59400
O531        O  0.23444451  0.23888278  0.00249726    -0.49500
O532        O  0.23704224  0.57316057  0.13285216    -0.55800
C533        C  0.20196808  0.47950196  0.04015497     0.84300
O534        O  0.18552947  0.64644987  0.50875395    -0.57700
O535        O  0.26701062  0.29075714  0.05266987    -0.61000
In536      In  0.25868493  0.41783294  0.46115010     1.36900
C537        C  0.24404963  0.45713834  0.37945971     0.76700
O538        O  0.24145731  0.32733952  0.45006834    -0.61700
O539        O  0.29621044  0.34536955  0.99123584    -0.52700
C540        C  0.31956413  0.46739072  0.00745665     0.69400
O541        O  0.31928641  0.43596869  0.47514492    -0.47500
C542        C  0.21188198  0.44278084  0.00845157     0.74100
O543        O  0.26094522  0.48649257  0.41181941    -0.59400
O544        O  0.23876942  0.40857011  0.02038332    -0.49500
O545        O  0.23480489  0.40793348  0.38887468    -0.55800
C546        C  0.26861251  0.31182176  0.98136504     0.84300
O547        O  0.28789125  0.47772627  0.01382274    -0.57700
O548        O  0.20432432  0.45672489  0.46906876    -0.60600
C549        C  0.94659771  0.67831465  0.07122289     0.85600
C550        C  0.94751475  0.63207402  0.10551625    -0.54600
C551        C  0.91368031  0.62591053  0.11523070     0.08500
C552        C  0.88262713  0.66583735  0.09060061     0.19500
C553        C  0.91372495  0.66321413  0.03283954    -0.55300
C554        C  0.88095401  0.65588433  0.04273864     0.08600
C555        C  0.93355831  0.39882210  0.09112426    -0.54900
C556        C  0.90023365  0.39156469  0.10199795     0.09200
H557        H  0.97256326  0.60759222  0.12132334     0.13700
H558        H  0.85496285  0.66098236  0.09811424    -0.00500
H559        H  0.91589519  0.66037464  0.99974927     0.14000
H560        H  0.95145425  0.43577706  0.10178216     0.13800
C561        C  0.05271889  0.68392034  0.46783003     0.85600
C562        C  0.04777506  0.63620917  0.43331717    -0.54600
C563        C  0.07815238  0.62958799  0.41660768     0.08500
C564        C  0.11086107  0.67059956  0.43649459     0.19500
C565        C  0.08911521  0.66988534  0.50154035    -0.55300
C566        C  0.11912057  0.66198182  0.48587272     0.08600
C567        C  0.06166724  0.40340667  0.44443037    -0.54900
C568        C  0.09197660  0.39619335  0.42775827     0.09200
H569        H  0.02224495  0.61080669  0.42257455     0.13700
H570        H  0.13597472  0.66509480  0.42377807    -0.00500
H571        H  0.09067466  0.66400675  0.03558823     0.14000
H572        H  0.04206235  0.43865676  0.43429275     0.13800
In573      In  0.69831817  0.50533101  0.05779779     1.36900
C574        C  0.71734848  0.52177928  0.14100719     0.76700
O575        O  0.72441612  0.42144816  0.06186180    -0.61700
O576        O  0.75636791  0.49502765  0.05212063    -0.52700
C577        C  0.63006172  0.48916431  0.51366421     0.69400
O578        O  0.63751488  0.52306599  0.04548388    -0.47500
C579        C  0.70670688  0.57383559  0.99836580     0.74100
O580        O  0.71412798  0.56230899  0.11439991    -0.59400
O581        O  0.70415674  0.52088734  0.99265995    -0.49500
O582        O  0.70784520  0.47302428  0.12496114    -0.55800
C583        C  0.75212075  0.44162380  0.05034148     0.84300
O584        O  0.65575334  0.45493206  0.51112903    -0.57700
O585        O  0.70197583  0.59278791  0.03356838    -0.61000
In586      In  0.77821935  0.67036161  0.46568052     1.36900
C587        C  0.75923751  0.68817184  0.38306310     0.76700
O588        O  0.75186147  0.58688702  0.46089407    -0.61700
O589        O  0.72015956  0.66113838  0.97096937    -0.52700
C590        C  0.84624263  0.65143010  0.00889842     0.69400
O591        O  0.83907562  0.68473053  0.47690566    -0.47500
C592        C  0.76991628  0.40698140  0.02488887     0.74100
O593        O  0.76379206  0.72851083  0.41018887    -0.59400
O594        O  0.77246355  0.35411145  0.03080402    -0.49500
O595        O  0.76743994  0.63876199  0.39830541    -0.55800
C596        C  0.72429537  0.60769529  0.97262022     0.84300
O597        O  0.82013901  0.61886008  0.01213335    -0.57700
O598        O  0.77483427  0.42510816  0.48970247    -0.61000
C599        C  0.52913699  0.51264270  0.45071991     0.85600
C600        C  0.52921179  0.46322328  0.41875516    -0.54600
C601        C  0.56286544  0.45704081  0.40866417     0.08500
C602        C  0.59314822  0.49937518  0.43130731     0.19500
C603        C  0.56245855  0.50145375  0.48952713    -0.55300
C604        C  0.59529160  0.49365110  0.47969755     0.08600
C605        C  0.54052035  0.56453281  0.42775817    -0.54900
C606        C  0.57405265  0.55697819  0.41726807     0.09200
H607        H  0.50457597  0.43753706  0.40377222     0.13700
H608        H  0.62075276  0.49425076  0.42362880    -0.00500
H609        H  0.56036764  0.50054208  0.02269420     0.14000
H610        H  0.52183383  0.60042457  0.41591508     0.13800
C611        C  0.42121004  0.50955839  0.05216338     0.85600
C612        C  0.42696703  0.46259412  0.08689334    -0.54600
C613        C  0.39699724  0.45639772  0.10420155     0.08500
C614        C  0.36403273  0.49746621  0.08506851     0.19500
C615        C  0.38441429  0.49556244  0.01912642    -0.55300
C616        C  0.35481484  0.48864655  0.03563339     0.08600
C617        C  0.41243624  0.56313792  0.07548848    -0.54900
C618        C  0.38282381  0.55622343  0.09326886     0.09200
H619        H  0.45266700  0.43728942  0.09727594     0.13700
H620        H  0.33934520  0.49239422  0.09852839    -0.00500
H621        H  0.38210971  0.49003658  0.98484852     0.14000
H622        H  0.43117797  0.59959794  0.08363778     0.13800
In623      In  0.57928231  0.66952219  0.32321540     1.36900
C624        C  0.64307754  0.68253472  0.29483347     0.76700
O625        O  0.54351143  0.38132345  0.35866625    -0.61700
O626        O  0.59910329  0.41244764  0.36576604    -0.52700
C627        C  0.50916200  0.66540990  0.26788975     0.69400
O628        O  0.52945355  0.62127583  0.27864216    -0.47500
C629        C  0.58285018  0.59229597  0.38379756     0.74100
O630        O  0.61545665  0.71687188  0.28572183    -0.59400
O631        O  0.59726479  0.64085286  0.39224850    -0.49500
O632        O  0.63640116  0.63868107  0.31420264    -0.55800
C633        C  0.56857352  0.41646068  0.37656607     0.84300
O634        O  0.52680737  0.71134745  0.27972192    -0.57700
O635        O  0.57207028  0.57965448  0.34406333    -0.61000
In636      In  0.39543629  0.66459464  0.19436160     1.36900
C637        C  0.33679642  0.65691210  0.23122442     0.76700
O638        O  0.42184793  0.37616313  0.14854169    -0.61700
O639        O  0.37191740  0.41251415  0.15859068    -0.52700
C640        C  0.46798846  0.66412270  0.24479670     0.69400
O641        O  0.44774059  0.70854948  0.23693888    -0.47500
C642        C  0.38237417  0.59065434  0.13076759     0.74100
O643        O  0.35808084  0.70010033  0.23533231    -0.59400
O644        O  0.36505422  0.63748138  0.12731271    -0.49500
O645        O  0.34791268  0.61583505  0.21242609    -0.55800
C646        C  0.39703842  0.41456370  0.13836312     0.84300
O647        O  0.44991233  0.61896805  0.23140555    -0.57700
O648        O  0.40329671  0.57899648  0.16789950    -0.61000
C649        C  0.45141262  0.51215093  0.02839028    -0.06300
C650        C  0.46548112  0.56450167  0.01828867    -0.33800
C651        C  0.48779652  0.56690841  0.48937597     0.35500
C652        C  0.49488159  0.51684223  0.46790892    -0.06700
C653        C  0.48045141  0.46480353  0.97816359    -0.33700
C654        C  0.45950374  0.46200739  0.00801058     0.35400
H655        H  0.45923692  0.60419018  0.53213501     0.15800
O656        O  0.50375744  0.61819727  0.48389568    -0.61200
H657        H  0.48766190  0.42463703  0.96560499     0.15800
O658        O  0.44685502  0.40956053  0.01702150    -0.61300
H659        H  0.42519399  0.40017074  0.99196867     0.42800
H660        H  0.52719181  0.62078550  0.50799692     0.42700
C661        C  0.98078507  0.68213667  0.05392499    -0.06300
C662        C  0.98969224  0.40143791  0.03816187    -0.33800
C663        C  0.01086080  0.40400328  0.00805406     0.35500
C664        C  0.02216039  0.68635236  0.49124712    -0.06700
C665        C  0.01363522  0.63400901  0.50763462    -0.33700
C666        C  0.99392477  0.63146846  0.03871069     0.35400
H667        H  0.97893466  0.44115258  0.04744604     0.15800
O668        O  0.02005713  0.45674085  0.99573051    -0.61200
H669        H  0.02389637  0.59416104  0.49766844     0.15800
O670        O  0.98593533  0.57860005  0.05225661    -0.61300
H671        H  0.96404923  0.56431220  0.52932773     0.42800
H672        H  0.04361408  0.46768871  0.01772411     0.42700
C673        C  0.23303139  0.54190529  0.77257826     0.85600
C674        C  0.24822444  0.52845664  0.82147129    -0.54600
C675        C  0.23491914  0.47835743  0.83415819     0.08500
C676        C  0.20745408  0.44614407  0.79703902     0.19500
C677        C  0.24267799  0.48655683  0.75005235    -0.55300
C678        C  0.23042237  0.43544937  0.76346609     0.08600
C679        C  0.18974212  0.53953700  0.76427113    -0.54900
C680        C  0.17604132  0.49111837  0.77821352     0.09200
H681        H  0.26738345  0.55658255  0.84402672     0.13700
H682        H  0.19599447  0.40691129  0.80780131    -0.00500
H683        H  0.25952681  0.48693384  0.72709855     0.14000
H684        H  0.17186853  0.57651415  0.75310920     0.13800
C685        C  0.24334436  0.37506403  0.75023261     0.85600
C686        C  0.22717522  0.36135682  0.70156031    -0.54600
C687        C  0.23990806  0.64424871  0.68836327     0.08500
C688        C  0.26810353  0.61195673  0.72483028     0.19500
C689        C  0.23421196  0.32009671  0.77319361    -0.55300
C690        C  0.24610288  0.60194829  0.75938722     0.08600
C691        C  0.28651407  0.37214683  0.75735654    -0.54900
C692        C  0.29977022  0.65667290  0.74292805     0.09200
H693        H  0.20764015  0.38952872  0.67946997     0.13700
H694        H  0.27914279  0.57253570  0.71342409    -0.00500
H695        H  0.21790035  0.65434849  0.79669295     0.14000
H696        H  0.30459144  0.40886916  0.76829592     0.13800
C697        C  0.74525074  0.58687655  0.75331926     0.85600
C698        C  0.72501087  0.58086501  0.70557469    -0.54600
C699        C  0.73214525  0.53131741  0.68729112     0.08500
C700        C  0.75963050  0.49054560  0.71810069     0.19500
C701        C  0.73364419  0.53143539  0.77369592    -0.55300
C702        C  0.74084540  0.48025089  0.75513951     0.08600
C703        C  0.78759120  0.57728359  0.75574370    -0.54900
C704        C  0.79550312  0.52734710  0.73708023     0.09200
H705        H  0.70669216  0.61386437  0.68725174     0.13700
H706        H  0.76564706  0.45144412  0.70160746    -0.00500
H707        H  0.72061104  0.53193346  0.80018594     0.14000
H708        H  0.80902521  0.60929146  0.76861383     0.13800
C709        C  0.73153044  0.42038751  0.77124626     0.85600
C710        C  0.75148450  0.41456158  0.81908734    -0.54600
C711        C  0.74422386  0.69847234  0.83707122     0.08500
C712        C  0.71693044  0.65780379  0.80608538     0.19500
C713        C  0.74335860  0.69794338  0.75099062    -0.55300
C714        C  0.73602522  0.64701647  0.76939944     0.08600
C715        C  0.68908496  0.41113641  0.76845708    -0.54900
C716        C  0.68107970  0.69463498  0.78681718     0.09200
H717        H  0.76984341  0.44736309  0.83759096     0.13700
H718        H  0.71082977  0.61889131  0.82241681    -0.00500
H719        H  0.75662524  0.69805853  0.72469693     0.14000
H720        H  0.66761557  0.44312496  0.75534686     0.13800
In721      In  0.89637111  0.50367717  0.69803167     1.36900
C722        C  0.83322100  0.51581259  0.72800835     0.76700
O723        O  0.93324269  0.55211304  0.66643044    -0.61700
O724        O  0.87592016  0.57857399  0.65460099    -0.52700
C725        C  0.96675066  0.50020416  0.75281796     0.69400
O726        O  0.94736998  0.45555194  0.74091263    -0.47500
C727        C  0.89217151  0.42748356  0.63587476     0.74100
O728        O  0.86016283  0.55106873  0.73583387    -0.59400
O729        O  0.87929222  0.47712916  0.62819321    -0.49500
O730        O  0.84023326  0.47167321  0.70887586    -0.55800
C731        C  0.90755382  0.58529879  0.64673829     0.84300
O732        O  0.94811640  0.54569824  0.74233203    -0.57700
O733        O  0.90212982  0.41383431  0.67538295    -0.61000
In734      In  0.08032959  0.50285094  0.82641633     1.36900
C735        C  0.13888582  0.49246722  0.78958715     0.76700
O736        O  0.05394871  0.54894162  0.87214683    -0.61700
O737        O  0.10362396  0.58500689  0.86209556    -0.52700
C738        C  0.00797121  0.50021662  0.77572480     0.69400
O739        O  0.02739985  0.54533260  0.78369275    -0.47500
C740        C  0.09259768  0.42963328  0.88999869     0.74100
O741        O  0.11714230  0.53549651  0.78403726    -0.59400
O742        O  0.11212618  0.47413323  0.89260721    -0.49500
O743        O  0.12821063  0.45279046  0.80972900    -0.55800
C744        C  0.07856727  0.58731470  0.88243005     0.84300
O745        O  0.02685647  0.45562448  0.78897766    -0.57700
O746        O  0.06979722  0.41974261  0.85361560    -0.61000
In747      In  0.21304330  0.58506952  0.56072481     1.36900
C748        C  0.22935854  0.62307196  0.64296494     0.76700
O749        O  0.17495471  0.51422669  0.52888459    -0.61700
O750        O  0.22818995  0.49398348  0.57278879    -0.52700
C751        C  0.15346469  0.63820910  0.01438224     0.69400
O752        O  0.15256751  0.60666783  0.54608180    -0.47500
C753        C  0.26013207  0.27497648  0.51368102     0.74100
O754        O  0.21277961  0.65339638  0.61112913    -0.59400
O755        O  0.23444493  0.23887799  0.50250267    -0.49500
O756        O  0.23702613  0.57315529  0.63284664    -0.55800
C757        C  0.20196810  0.47950616  0.54014492     0.84300
O758        O  0.18553121  0.64644281  0.00875786    -0.57700
O759        O  0.26700429  0.29075521  0.55267743    -0.61000
In760      In  0.25867807  0.41783820  0.96115005     1.36900
C761        C  0.24404114  0.45714378  0.87945917     0.76700
O762        O  0.24144783  0.32734772  0.95006482    -0.61700
O763        O  0.29621364  0.34536769  0.49125176    -0.52700
C764        C  0.31956964  0.46738764  0.50745455     0.69400
O765        O  0.31927855  0.43598173  0.97514130    -0.47500
C766        C  0.21188444  0.44278246  0.50844455     0.74100
O767        O  0.26093707  0.48649861  0.91181860    -0.59400
O768        O  0.23877160  0.40857226  0.52038023    -0.49500
O769        O  0.23479406  0.40794096  0.88887524    -0.55800
C770        C  0.26861712  0.31181763  0.48137565     0.84300
O771        O  0.28789536  0.47773358  0.51381371    -0.57700
O772        O  0.20431928  0.45672705  0.96907628    -0.60600
C773        C  0.94660102  0.67832114  0.57122739     0.85600
C774        C  0.94751753  0.63208186  0.60552196    -0.54600
C775        C  0.91368210  0.62591777  0.61523447     0.08500
C776        C  0.88262902  0.66584282  0.59060174     0.19500
C777        C  0.91373000  0.66321723  0.53284342    -0.55300
C778        C  0.88095836  0.65588783  0.54274068     0.08600
C779        C  0.93355884  0.39882344  0.59112678    -0.54900
C780        C  0.90023438  0.39156434  0.60200057     0.09200
H781        H  0.97256594  0.60760115  0.62133100     0.13700
H782        H  0.85496419  0.66098693  0.59811379    -0.00500
H783        H  0.91590170  0.66037657  0.49975371     0.14000
H784        H  0.95145368  0.43577958  0.60178382     0.13800
C785        C  0.05271953  0.68390832  0.96783094     0.85600
C786        C  0.04777310  0.63620267  0.93331330    -0.54600
C787        C  0.07815038  0.62958131  0.91660373     0.08500
C788        C  0.11086113  0.67058811  0.93649499     0.19500
C789        C  0.08911445  0.66986447  0.00154030    -0.55300
C790        C  0.11912012  0.66196309  0.98587272     0.08600
C791        C  0.06166922  0.40340486  0.94442971    -0.54900
C792        C  0.09197811  0.39619141  0.92775670     0.09200
H793        H  0.02224138  0.61080445  0.92256730     0.13700
H794        H  0.13597477  0.66508409  0.92377850    -0.00500
H795        H  0.09067624  0.66403106  0.53558878     0.14000
H796        H  0.04206422  0.43865439  0.93429115     0.13800
In797      In  0.69832139  0.50534935  0.55779267     1.36900
C798        C  0.71735034  0.52178754  0.64100446     0.76700
O799        O  0.72441383  0.42146315  0.56185477    -0.61700
O800        O  0.75636977  0.49503661  0.55211151    -0.52700
C801        C  0.63005932  0.48914688  0.01367236     0.69400
O802        O  0.63751744  0.52309112  0.54547102    -0.47500
C803        C  0.70671452  0.57385646  0.49836425     0.74100
O804        O  0.71413648  0.56231922  0.61439994    -0.59400
O805        O  0.70416555  0.52090827  0.49265833    -0.49500
O806        O  0.70784254  0.47303600  0.62495448    -0.55800
C807        C  0.75211912  0.44163335  0.55033307     0.84300
O808        O  0.65575020  0.45491523  0.01113334    -0.57700
O809        O  0.70198154  0.59280829  0.53356613    -0.61000
In810      In  0.77821122  0.67034469  0.96568125     1.36900
C811        C  0.75922860  0.68816375  0.88306433     0.76700
O812        O  0.75185485  0.58686742  0.96089651    -0.61700
O813        O  0.72016757  0.66115937  0.47096805    -0.52700
C814        C  0.84624825  0.65143852  0.50889885     0.69400
O815        O  0.83906714  0.68471840  0.97690303    -0.47500
C816        C  0.76991281  0.40698530  0.52488204     0.74100
O817        O  0.76377626  0.72849898  0.91019250    -0.59400
O818        O  0.77245974  0.35411626  0.53080159    -0.49500
O819        O  0.76743607  0.63875356  0.89830406    -0.55800
C820        C  0.72430294  0.60771618  0.47261886     0.84300
O821        O  0.82014294  0.61886993  0.51213057    -0.57700
O822        O  0.77483738  0.42511030  0.98971063    -0.61000
C823        C  0.52913910  0.51265072  0.95072389     0.85600
C824        C  0.52921199  0.46323488  0.91875576    -0.54600
C825        C  0.56286630  0.45704951  0.90866651     0.08500
C826        C  0.59315140  0.49937705  0.93131483     0.19500
C827        C  0.56245790  0.50145218  0.98953172    -0.55300
C828        C  0.59529129  0.49364510  0.97970393     0.08600
C829        C  0.54052785  0.56454191  0.92776793    -0.54900
C830        C  0.57406043  0.55698461  0.91727908     0.09200
H831        H  0.50457491  0.43755236  0.90377061     0.13700
H832        H  0.62075667  0.49424987  0.92363844    -0.00500
H833        H  0.56037049  0.50054829  0.52269054     0.14000
H834        H  0.52184272  0.60043496  0.91592394     0.13800
C835        C  0.42121627  0.50954337  0.55216872     0.85600
C836        C  0.42696872  0.46257432  0.58689411    -0.54600
C837        C  0.39699794  0.45638029  0.60420091     0.08500
C838        C  0.36403603  0.49745404  0.58506937     0.19500
C839        C  0.38442039  0.49555628  0.51912917    -0.55300
C840        C  0.35481955  0.48864157  0.53563371     0.08600
C841        C  0.41244548  0.56312082  0.57549805    -0.54900
C842        C  0.38283077  0.55620796  0.59327488     0.09200
H843        H  0.45266725  0.43726638  0.59727610     0.13700
H844        H  0.33934744  0.49238309  0.59852753    -0.00500
H845        H  0.38211681  0.49003392  0.48485124     0.14000
H846        H  0.43118923  0.59957815  0.58365077     0.13800
In847      In  0.57927958  0.66951758  0.82321371     1.36900
C848        C  0.64307326  0.68253352  0.79482924     0.76700
O849        O  0.54351229  0.38133112  0.85867099    -0.61700
O850        O  0.59910219  0.41245981  0.86576465    -0.52700
C851        C  0.50915967  0.66539600  0.76788873     0.69400
O852        O  0.52944675  0.62126089  0.77865685    -0.47500
C853        C  0.58285571  0.59229953  0.88380522     0.74100
O854        O  0.61545413  0.71687382  0.78572340    -0.59400
O855        O  0.59726047  0.64086336  0.89225080    -0.49500
O856        O  0.63639511  0.63867546  0.81419235    -0.55800
C857        C  0.56857377  0.41647048  0.87656785     0.84300
O858        O  0.52680928  0.71133426  0.77970475    -0.57700
O859        O  0.57208092  0.57964878  0.84407230    -0.61000
In860      In  0.39543525  0.66458335  0.69436167     1.36900
C861        C  0.33679479  0.65690514  0.73122303     0.76700
O862        O  0.42184728  0.37614642  0.64854172    -0.61700
O863        O  0.37191699  0.41249936  0.65859025    -0.52700
C864        C  0.46798631  0.66411037  0.74479668     0.69400
O865        O  0.44774106  0.70853924  0.73693279    -0.47500
C866        C  0.38237699  0.59063963  0.63077141     0.74100
O867        O  0.35807874  0.70009367  0.73532909    -0.59400
O868        O  0.36505543  0.63746553  0.62731356    -0.49500
O869        O  0.34791182  0.61582603  0.71242744    -0.55800
C870        C  0.39703808  0.41454735  0.63836266     0.84300
O871        O  0.44990780  0.61895557  0.73141236    -0.57700
O872        O  0.40329808  0.57898431  0.66790444    -0.61000
C873        C  0.45141955  0.51213533  0.52839690    -0.06300
C874        C  0.46548726  0.56448683  0.51829565    -0.33800
C875        C  0.48779631  0.56692041  0.98937512     0.35500
C876        C  0.49488225  0.51685315  0.96790991    -0.06700
C877        C  0.48045274  0.46479153  0.47816357    -0.33700
C878        C  0.45950730  0.46199333  0.50801267     0.35400
H879        H  0.45922938  0.60420593  0.03212557     0.15800
O880        O  0.50376454  0.61820613  0.98390236    -0.61200
H881        H  0.48766179  0.42462577  0.46560277     0.15800
O882        O  0.44685571  0.40954638  0.51701939    -0.61300
H883        H  0.42519383  0.40016173  0.49196614     0.42800
H884        H  0.52719613  0.62078768  0.00800850     0.42700
C885        C  0.98078844  0.68214680  0.55392951    -0.06300
C886        C  0.98969690  0.40144039  0.53816857    -0.33800
C887        C  0.01086500  0.40400595  0.50806036     0.35500
C888        C  0.02216080  0.68634354  0.99124714    -0.06700
C889        C  0.01362759  0.63399919  0.00762592    -0.33700
C890        C  0.99393368  0.63147910  0.53872086     0.35400
H891        H  0.97894377  0.44115560  0.54745767     0.15800
O892        O  0.02006752  0.45674350  0.49574312    -0.61200
H893        H  0.02388350  0.59415048  0.99765443     0.15800
O894        O  0.98595029  0.57861118  0.55227297    -0.61300
H895        H  0.96403337  0.56430844  0.02930922     0.42800
H896        H  0.04362727  0.46768097  0.51773632     0.42700
C897        C  0.23303485  0.87524383  0.27257867     0.85600
C898        C  0.24822898  0.86179499  0.32147187    -0.54600
C899        C  0.23492504  0.81169480  0.33415928     0.08500
C900        C  0.20745937  0.77948227  0.29704055     0.19500
C901        C  0.24268139  0.81989581  0.25005250    -0.55300
C902        C  0.23042671  0.76878826  0.26346711     0.08600
C903        C  0.18974589  0.87287448  0.26427214    -0.54900
C904        C  0.17604617  0.82445574  0.27821509     0.09200
H905        H  0.26738848  0.88992067  0.34402678     0.13700
H906        H  0.19600016  0.74024949  0.30780299    -0.00500
H907        H  0.25952918  0.82027314  0.22709772     0.14000
H908        H  0.17187172  0.90985088  0.25311008     0.13800
C909        C  0.24334929  0.70840340  0.25023476     0.85600
C910        C  0.22718075  0.69469598  0.20156280    -0.54600
C911        C  0.23990968  0.97758810  0.18836264     0.08500
C912        C  0.26810549  0.94529615  0.22482997     0.19500
C913        C  0.23421654  0.65343605  0.27319531    -0.55300
C914        C  0.24610490  0.93528704  0.25938674     0.08600
C915        C  0.28651896  0.70548736  0.25735934    -0.54900
C916        C  0.29977183  0.99001211  0.24292925     0.09200
H917        H  0.20764513  0.72286683  0.17947219     0.13700
H918        H  0.27914528  0.90587530  0.21342424    -0.00500
H919        H  0.21790137  0.98768608  0.29669184     0.14000
H920        H  0.30459531  0.74221110  0.26829728     0.13800
C921        C  0.74524670  0.92021058  0.25331230     0.85600
C922        C  0.72500782  0.91419572  0.20556766    -0.54600
C923        C  0.73214408  0.86464744  0.18728612     0.08500
C924        C  0.75963019  0.82387864  0.21809793     0.19500
C925        C  0.73364098  0.86476966  0.27369035    -0.55300
C926        C  0.74084400  0.81358463  0.25513563     0.08600
C927        C  0.78758754  0.91061967  0.25573879    -0.54900
C928        C  0.79550162  0.86068234  0.23707834     0.09200
H929        H  0.70668745  0.94719251  0.18724345     0.13700
H930        H  0.76564869  0.78477681  0.20160655    -0.00500
H931        H  0.72060708  0.86526841  0.30017976     0.14000
H932        H  0.80902072  0.94262847  0.26860982     0.13800
C933        C  0.73152974  0.75372100  0.27124230     0.85600
C934        C  0.75148619  0.74789321  0.31908246    -0.54600
C935        C  0.74422441  0.03180979  0.33706218     0.08500
C936        C  0.71692936  0.99114054  0.30607897     0.19500
C937        C  0.74335319  0.03127723  0.25097996    -0.55300
C938        C  0.73602072  0.98035120  0.26939062     0.08600
C939        C  0.68908493  0.74447124  0.26845568    -0.54900
C940        C  0.68107856  0.02797207  0.28681281     0.09200
H941        H  0.76984657  0.78069372  0.33758544     0.13700
H942        H  0.71082980  0.95222877  0.32241203    -0.00500
H943        H  0.75661745  0.03139103  0.22468424     0.14000
H944        H  0.66761551  0.77646019  0.25534642     0.13800
In945      In  0.89637178  0.83701059  0.19803577     1.36900
C946        C  0.83322144  0.84914764  0.22801157     0.76700
O947        O  0.93324562  0.88546554  0.16644959    -0.61700
O948        O  0.87591499  0.91189545  0.15459688    -0.52700
C949        C  0.96675366  0.83353418  0.25281889     0.69400
O950        O  0.94737619  0.78888147  0.24090407    -0.47500
C951        C  0.89217053  0.76082138  0.13587343     0.74100
O952        O  0.86015818  0.88441212  0.23582632    -0.59400
O953        O  0.87929371  0.81046866  0.12819438    -0.49500
O954        O  0.84024036  0.80499929  0.20889358    -0.55800
C955        C  0.90755158  0.91863460  0.14674490     0.84300
O956        O  0.94811511  0.87902713  0.24234463    -0.57700
O957        O  0.90212794  0.74716955  0.17538100    -0.61000
In958      In  0.08033339  0.83618955  0.32641427     1.36900
C959        C  0.13889081  0.82580253  0.28958818     0.76700
O960        O  0.05395786  0.88226832  0.37215302    -0.61700
O961        O  0.10361932  0.91835740  0.36208257    -0.52700
C962        C  0.00797511  0.83354978  0.27572336     0.69400
O963        O  0.02739822  0.87866997  0.28370331    -0.47500
C964        C  0.09260036  0.76297629  0.38999910     0.74100
O965        O  0.11713519  0.86881906  0.28401606    -0.59400
O966        O  0.11213669  0.80746750  0.39260191    -0.49500
O967        O  0.12822791  0.78613876  0.30975191    -0.55800
C968        C  0.07856920  0.92065230  0.38242698     0.84300
O969        O  0.02686644  0.78895784  0.28896243    -0.57700
O970        O  0.06979261  0.75309067  0.35361952    -0.61000
In971      In  0.21303951  0.91840303  0.06072588     1.36900
C972        C  0.22935803  0.95640940  0.14296482     0.76700
O973        O  0.17494998  0.84755903  0.02888924    -0.61700
O974        O  0.22818494  0.82731675  0.07279343    -0.52700
C975        C  0.15346318  0.97154628  0.51438056     0.69400
O976        O  0.15256311  0.93999563  0.04608101    -0.47500
C977        C  0.26013229  0.60831198  0.01368610     0.74100
O978        O  0.21276723  0.98672688  0.11112992    -0.59400
O979        O  0.23444507  0.57221326  0.00250890    -0.49500
O980        O  0.23703445  0.90649725  0.13284622    -0.55800
C981        C  0.20196315  0.81283849  0.04014993     0.84300
O982        O  0.18553040  0.97978987  0.50876120    -0.57700
O983        O  0.26700553  0.62409113  0.05268241    -0.61000
In984      In  0.25868495  0.75117131  0.46115235     1.36900
C985        C  0.24404950  0.79047805  0.37946014     0.76700
O986        O  0.24145212  0.66068117  0.45006766    -0.61700
O987        O  0.29621280  0.67870306  0.99125446    -0.52700
C988        C  0.31956566  0.80073308  0.00746173     0.69400
O989        O  0.31928765  0.76930647  0.47514969    -0.47500
C990        C  0.21188020  0.77611654  0.00844910     0.74100
O991        O  0.26094133  0.81983416  0.41182058    -0.59400
O992        O  0.23876586  0.74190358  0.02038445    -0.49500
O993        O  0.23480793  0.74127149  0.38887535    -0.55800
C994        C  0.26861607  0.64515316  0.98137996     0.84300
O995        O  0.28789101  0.81107179  0.01382231    -0.57700
O996        O  0.20432598  0.79006407  0.46907508    -0.60600
C997        C  0.94659090  0.01164429  0.07122221     0.85600
C998        C  0.94751098  0.96541030  0.10552105    -0.54600
C999        C  0.91367687  0.95924737  0.11523662     0.08500
C1000       C  0.88262116  0.99916651  0.09060163     0.19500
C1001       C  0.91371859  0.99653405  0.03284104    -0.55300
C1002       C  0.88094787  0.98920489  0.04274072     0.08600
C1003       C  0.93355684  0.73216163  0.09112468    -0.54900
C1004       C  0.90023207  0.72490262  0.10199775     0.09200
H1005       H  0.97256063  0.94093171  0.12132964     0.13700
H1006       H  0.85495726  0.99431138  0.09811617    -0.00500
H1007       H  0.91588840  0.99369207  0.99975075     0.14000
H1008       H  0.95145167  0.76911754  0.10178231     0.13800
C1009       C  0.05271830  0.01724177  0.46782834     0.85600
C1010       C  0.04777340  0.96953561  0.43331107    -0.54600
C1011       C  0.07815112  0.96291685  0.41660135     0.08500
C1012       C  0.11086115  0.00392378  0.43649347     0.19500
C1013       C  0.08911304  0.00319893  0.50153801    -0.55300
C1014       C  0.11911904  0.99529901  0.48587088     0.08600
C1015       C  0.06167246  0.73675705  0.44443290    -0.54900
C1016       C  0.09198138  0.72953948  0.42776005     0.09200
H1017       H  0.02224261  0.94413531  0.42256542     0.13700
H1018       H  0.13597519  0.99842054  0.42377736    -0.00500
H1019       H  0.09066705  0.99734551  0.03558546     0.14000
H1020       H  0.04206915  0.77200812  0.43429323     0.13800
In1021     In  0.69831268  0.83867049  0.05778756     1.36900
C1022       C  0.71734733  0.85511266  0.14099999     0.76700
O1023       O  0.72441277  0.75478988  0.06184621    -0.61700
O1024       O  0.75635806  0.82836860  0.05209101    -0.52700
C1025       C  0.63005800  0.82249198  0.51367005     0.69400
O1026       O  0.63750856  0.85640425  0.04547252    -0.47500
C1027       C  0.70669366  0.90718399  0.99835661     0.74100
O1028       O  0.71412386  0.89564375  0.11439360    -0.59400
O1029       O  0.70413414  0.85423748  0.99264384    -0.49500
O1030       O  0.70784671  0.80635798  0.12495208    -0.55800
C1031       C  0.75211323  0.77496443  0.05031761     0.84300
O1032       O  0.65574989  0.78826056  0.51113410    -0.57700
O1033       O  0.70197450  0.92613133  0.03356603    -0.61000
In1034     In  0.77820731  0.00369489  0.46567276     1.36900
C1035       C  0.75922819  0.02150774  0.38305557     0.76700
O1036       O  0.75184077  0.92022451  0.46088123    -0.61700
O1037       O  0.72015052  0.99448541  0.97096081    -0.52700
C1038       C  0.84623600  0.98475957  0.00889981     0.69400
O1039       O  0.83906131  0.01809664  0.47691044    -0.47500
C1040       C  0.76991005  0.74031536  0.02486998     0.74100
O1041       O  0.76376268  0.06184441  0.41018145    -0.59400
O1042       O  0.77246207  0.68744766  0.03079549    -0.49500
O1043       O  0.76744796  0.97210182  0.39829782    -0.55800
C1044       C  0.72428373  0.94104168  0.97261146     0.84300
O1045       O  0.82013133  0.95218684  0.01212782    -0.57700
O1046       O  0.77483326  0.75844978  0.48968612    -0.61000
C1047       C  0.52913662  0.84598366  0.45071866     0.85600
C1048       C  0.52921151  0.79656610  0.41875265    -0.54600
C1049       C  0.56286656  0.79038139  0.40866517     0.08500
C1050       C  0.59315029  0.83271125  0.43131255     0.19500
C1051       C  0.56245523  0.83478868  0.48952811    -0.55300
C1052       C  0.59528939  0.82698261  0.47970159     0.08600
C1053       C  0.54052481  0.89787349  0.42776120    -0.54900
C1054       C  0.57405814  0.89031676  0.41727434     0.09200
H1055       H  0.50457515  0.77088225  0.40376701     0.13700
H1056       H  0.62075588  0.82758469  0.42363679    -0.00500
H1057       H  0.56035858  0.83386162  0.02268614     0.14000
H1058       H  0.52183923  0.93376504  0.41591470     0.13800
C1059       C  0.42121177  0.84289854  0.05216214     0.85600
C1060       C  0.42696652  0.79592712  0.08688591    -0.54600
C1061       C  0.39699827  0.78973393  0.10419682     0.08500
C1062       C  0.36403666  0.83080979  0.08507156     0.19500
C1063       C  0.38441270  0.82891629  0.01912619    -0.55300
C1064       C  0.35481469  0.82199962  0.03563550     0.08600
C1065       C  0.41244597  0.89647494  0.07549683    -0.54900
C1066       C  0.38283372  0.88956195  0.09327817     0.09200
H1067       H  0.45266456  0.77061711  0.09726397     0.13700
H1068       H  0.33935046  0.82573847  0.09853380    -0.00500
H1069       H  0.38210552  0.82339359  0.98484745     0.14000
H1070       H  0.43119086  0.93293119  0.08364791     0.13800
In1071     In  0.57928367  0.00285352  0.32321616     1.36900
C1072       C  0.64307428  0.01587004  0.29482889     0.76700
O1073       O  0.54351788  0.71465064  0.35868119    -0.61700
O1074       O  0.59909853  0.74580608  0.36575257    -0.52700
C1075       C  0.50916518  0.99873512  0.26789144     0.69400
O1076       O  0.52945466  0.95460026  0.27865055    -0.47500
C1077       C  0.58285484  0.92563110  0.38380169     0.74100
O1078       O  0.61545085  0.05020218  0.28571373    -0.59400
O1079       O  0.59726842  0.97418891  0.39225015    -0.49500
O1080       O  0.63640245  0.97201936  0.31420423    -0.55800
C1081       C  0.56857488  0.74980208  0.37656748     0.84300
O1082       O  0.52681196  0.04467344  0.27971631    -0.57700
O1083       O  0.57207353  0.91298689  0.34406797    -0.61000
In1084     In  0.39543947  0.99792984  0.19437011     1.36900
C1085       C  0.33679809  0.99024399  0.23122866     0.76700
O1086       O  0.42184988  0.70950082  0.14853623    -0.61700
O1087       O  0.37191721  0.74584929  0.15858306    -0.52700
C1088       C  0.46799168  0.99744958  0.24480076     0.69400
O1089       O  0.44774408  0.04187718  0.23695004    -0.47500
C1090       C  0.38238145  0.92399206  0.13077640     0.74100
O1091       O  0.35808786  0.03342739  0.23534826    -0.59400
O1092       O  0.36506209  0.97081982  0.12732005    -0.49500
O1093       O  0.34791068  0.94917158  0.21242268    -0.55800
C1094       C  0.39703946  0.74790007  0.13835721     0.84300
O1095       O  0.44991518  0.95229666  0.23140553    -0.57700
O1096       O  0.40329973  0.91233132  0.16790999    -0.61000
C1097       C  0.45141164  0.84548774  0.02838515    -0.06300
C1098       C  0.46548022  0.89783773  0.01828312    -0.33800
C1099       C  0.48779079  0.90025464  0.48936528     0.35500
C1100       C  0.49487879  0.85018618  0.46790271    -0.06700
C1101       C  0.48044105  0.79814089  0.97814923    -0.33700
C1102       C  0.45949653  0.79534484  0.00799947     0.35400
H1103       H  0.45922825  0.93753862  0.53212115     0.15800
O1104       O  0.50374876  0.95154443  0.48388099    -0.61200
H1105       H  0.48764756  0.75797479  0.96558637     0.15800
O1106       O  0.44684588  0.74289851  0.01700858    -0.61300
H1107       H  0.42517977  0.73351638  0.99195921     0.42800
H1108       H  0.52718449  0.95413574  0.50798016     0.42700
C1109       C  0.98077736  0.01546609  0.05392261    -0.06300
C1110       C  0.98969508  0.73477990  0.03816721    -0.33800
C1111       C  0.01086333  0.73734583  0.00805913     0.35500
C1112       C  0.02215935  0.01967775  0.49124500    -0.06700
C1113       C  0.01362643  0.96733455  0.50762602    -0.33700
C1114       C  0.99391690  0.96479759  0.03870876     0.35400
H1115       H  0.97893958  0.77449468  0.04745397     0.15800
O1116       O  0.02006020  0.79008364  0.99573657    -0.61200
H1117       H  0.02388293  0.92748540  0.49765608     0.15800
O1118       O  0.98592657  0.91192992  0.05225517    -0.61300
H1119       H  0.96403952  0.89763994  0.52931927     0.42800
H1120       H  0.04361390  0.80103459  0.01773383     0.42700
C1121       C  0.23303285  0.87523809  0.77258261     0.85600
C1122       C  0.24822735  0.86178812  0.82147531    -0.54600
C1123       C  0.23492357  0.81168761  0.83416237     0.08500
C1124       C  0.20745788  0.77947493  0.79704335     0.19500
C1125       C  0.24267965  0.81989108  0.75005559    -0.55300
C1126       C  0.23042534  0.76878269  0.76346901     0.08600
C1127       C  0.18974372  0.87286807  0.76427674    -0.54900
C1128       C  0.17604398  0.82444852  0.77821916     0.09200
H1129       H  0.26738652  0.88991406  0.84403037     0.13700
H1130       H  0.19599929  0.74024148  0.80780580    -0.00500
H1131       H  0.25952758  0.82026955  0.72710098     0.14000
H1132       H  0.17186940  0.90984448  0.75311510     0.13800
C1133       C  0.24334812  0.70839904  0.75023367     0.85600
C1134       C  0.22717996  0.69469483  0.70156081    -0.54600
C1135       C  0.23990729  0.97758238  0.68836721     0.08500
C1136       C  0.26810357  0.94529126  0.72483428     0.19500
C1137       C  0.23421442  0.65343065  0.77319182    -0.55300
C1138       C  0.24610331  0.93528182  0.75939140     0.08600
C1139       C  0.28651794  0.70548192  0.75735839    -0.54900
C1140       C  0.29976976  0.99000817  0.74293194     0.09200
H1141       H  0.20764532  0.72286786  0.67947117     0.13700
H1142       H  0.27914356  0.90587072  0.71342856    -0.00500
H1143       H  0.21789998  0.98768080  0.79669661     0.14000
H1144       H  0.30459511  0.74220456  0.76829795     0.13800
C1145       C  0.74524644  0.92021201  0.75331957     0.85600
C1146       C  0.72500710  0.91420025  0.70557469    -0.54600
C1147       C  0.73214330  0.86465373  0.68729091     0.08500
C1148       C  0.75962903  0.82388299  0.71810135     0.19500
C1149       C  0.73364109  0.86477006  0.77369621    -0.55300
C1150       C  0.74084367  0.81358617  0.75513996     0.08600
C1151       C  0.78758704  0.91062212  0.75574475    -0.54900
C1152       C  0.79550037  0.86068691  0.73708127     0.09200
H1153       H  0.70668793  0.94719903  0.68725162     0.13700
H1154       H  0.76564724  0.78478206  0.70160869    -0.00500
H1155       H  0.72060746  0.86526738  0.80018584     0.14000
H1156       H  0.80902013  0.94263123  0.76861516     0.13800
C1157       C  0.73152825  0.75372143  0.77124525     0.85600
C1158       C  0.75148217  0.74789049  0.81908619    -0.54600
C1159       C  0.74422276  0.03180609  0.83707191     0.08500
C1160       C  0.71692762  0.99113923  0.80608657     0.19500
C1161       C  0.74335506  0.03127714  0.75099103    -0.55300
C1162       C  0.73602076  0.98035106  0.76939967     0.08600
C1163       C  0.68908287  0.74447208  0.76845587    -0.54900
C1164       C  0.68107808  0.02797311  0.78681951     0.09200
H1165       H  0.76984204  0.78068970  0.83759143     0.13700
H1166       H  0.71082633  0.95222681  0.82241780    -0.00500
H1167       H  0.75662095  0.03139104  0.72469677     0.14000
H1168       H  0.66761430  0.77646215  0.75534689     0.13800
In1169     In  0.89636712  0.83702271  0.69803017     1.36900
C1170       C  0.83321802  0.84915623  0.72800853     0.76700
O1171       O  0.93323944  0.88546852  0.66643690    -0.61700
O1172       O  0.87591325  0.91191554  0.65459626    -0.52700
C1173       C  0.96674799  0.83353972  0.75281590     0.69400
O1174       O  0.94736767  0.78888948  0.74090178    -0.47500
C1175       C  0.89216775  0.76082982  0.63587107     0.74100
O1176       O  0.86015798  0.88441557  0.73583126    -0.59400
O1177       O  0.87929006  0.81047645  0.62818960    -0.49500
O1178       O  0.84023171  0.80501626  0.70887788    -0.55800
C1179       C  0.90754798  0.91864536  0.64673759     0.84300
O1180       O  0.94811272  0.87903501  0.74233867    -0.57700
O1181       O  0.90212380  0.74718048  0.67537916    -0.61000
In1182     In  0.08032816  0.83618054  0.82641670     1.36900
C1183       C  0.13888747  0.82579437  0.78959133     0.76700
O1184       O  0.05395119  0.88226126  0.87215416    -0.61700
O1185       O  0.10361558  0.91834531  0.86208803    -0.52700
C1186       C  0.00796920  0.83354972  0.77572304     0.69400
O1187       O  0.02739495  0.87866718  0.78370489    -0.47500
C1188       C  0.09259882  0.76296750  0.89000281     0.74100
O1189       O  0.11713461  0.86881387  0.78402482    -0.59400
O1190       O  0.11213480  0.80745851  0.89260312    -0.49500
O1191       O  0.12822039  0.78612664  0.80974819    -0.55800
C1192       C  0.07856383  0.92064336  0.88242993     0.84300
O1193       O  0.02685791  0.78895544  0.78896244    -0.57700
O1194       O  0.06978772  0.75308262  0.85362510    -0.61000
In1195     In  0.21304569  0.91840563  0.56072952     1.36900
C1196       C  0.22935808  0.95640605  0.64296927     0.76700
O1197       O  0.17495839  0.84755810  0.52889713    -0.61700
O1198       O  0.22820020  0.82732270  0.57279157    -0.52700
C1199       C  0.15345720  0.97154776  0.01437829     0.69400
O1200       O  0.15256740  0.93998451  0.54607760    -0.47500
C1201       C  0.26012728  0.60831167  0.51367673     0.74100
O1202       O  0.21277586  0.98672892  0.61113403    -0.59400
O1203       O  0.23443488  0.57222166  0.50249730    -0.49500
O1204       O  0.23702950  0.90649158  0.63285070    -0.55800
C1205       C  0.20197433  0.81284116  0.54015290     0.84300
O1206       O  0.18552305  0.97977844  0.00875109    -0.57700
O1207       O  0.26700576  0.62408284  0.55267542    -0.61000
In1208     In  0.25868273  0.75116937  0.96115640     1.36900
C1209       C  0.24404775  0.79047224  0.87946351     0.76700
O1210       O  0.24145507  0.66067589  0.95007447    -0.61700
O1211       O  0.29621134  0.67870070  0.49124821    -0.52700
C1212       C  0.31957100  0.80072588  0.50745907     0.69400
O1213       O  0.31928382  0.76931121  0.97515412    -0.47500
C1214       C  0.21188623  0.77611717  0.50845001     0.74100
O1215       O  0.26094852  0.81982395  0.91182239    -0.59400
O1216       O  0.23877145  0.74190304  0.52038253    -0.49500
O1217       O  0.23479734  0.74127176  0.88888066    -0.55800
C1218       C  0.26861255  0.64515455  0.48137259     0.84300
O1219       O  0.28789682  0.81106818  0.51381946    -0.57700
O1220       O  0.20432292  0.79006355  0.96907440    -0.60600
C1221       C  0.94659337  0.01165393  0.57121857     0.85600
C1222       C  0.94750963  0.96541869  0.60551537    -0.54600
C1223       C  0.91367434  0.95925686  0.61522833     0.08500
C1224       C  0.88262067  0.99917861  0.59059208     0.19500
C1225       C  0.91372248  0.99654717  0.53283487    -0.55300
C1226       C  0.88095017  0.98921938  0.54273136     0.08600
C1227       C  0.93355792  0.73216852  0.59112668    -0.54900
C1228       C  0.90023230  0.72490920  0.60199788     0.09200
H1229       H  0.97255843  0.94094024  0.62132650     0.13700
H1230       H  0.85495557  0.99432441  0.59810383    -0.00500
H1231       H  0.91589441  0.99370658  0.49974533     0.14000
H1232       H  0.95145189  0.76912559  0.60178333     0.13800
C1233       C  0.05271059  0.01723801  0.96782688     0.85600
C1234       C  0.04776759  0.96952858  0.93331250    -0.54600
C1235       C  0.07814509  0.96291019  0.91660282     0.08500
C1236       C  0.11085319  0.00392163  0.93649180     0.19500
C1237       C  0.08910651  0.00320162  0.00153725    -0.55300
C1238       C  0.11911249  0.99530169  0.98586975     0.08600
C1239       C  0.06167616  0.73674764  0.94443937    -0.54900
C1240       C  0.09198416  0.72953062  0.92776524     0.09200
H1241       H  0.02223761  0.94412647  0.92256789     0.13700
H1242       H  0.13596688  0.99841893  0.92377518    -0.00500
H1243       H  0.09067321  0.99734121  0.53558598     0.14000
H1244       H  0.04207331  0.77199985  0.93430169     0.13800
In1245     In  0.69831857  0.83868671  0.55778959     1.36900
C1246       C  0.71734980  0.85512405  0.64100347     0.76700
O1247       O  0.72442025  0.75480566  0.56184835    -0.61700
O1248       O  0.75636317  0.82838538  0.55209042    -0.52700
C1249       C  0.63005252  0.82247455  0.01366752     0.69400
O1250       O  0.63751401  0.85641941  0.54547643    -0.47500
C1251       C  0.70669646  0.90719967  0.49835571     0.74100
O1252       O  0.71413118  0.89565675  0.61439893    -0.59400
O1253       O  0.70413728  0.85425288  0.49264433    -0.49500
O1254       O  0.70784762  0.80637135  0.62495269    -0.55800
C1255       C  0.75211945  0.77498101  0.55031765     0.84300
O1256       O  0.65574412  0.78824141  0.01113356    -0.57700
O1257       O  0.70197945  0.92614771  0.53356607    -0.61000
In1258     In  0.77820558  0.00368312  0.96568112     1.36900
C1259       C  0.75922729  0.02149900  0.88306467     0.76700
O1260       O  0.75184408  0.92021050  0.96089127    -0.61700
O1261       O  0.72015310  0.99450126  0.47095886    -0.52700
C1262       C  0.84623952  0.98477798  0.50888775     0.69400
O1263       O  0.83906178  0.01805804  0.97691054    -0.47500
C1264       C  0.76991637  0.74033254  0.52486922     0.74100
O1265       O  0.76377904  0.06183613  0.91019172    -0.59400
O1266       O  0.77247203  0.68746524  0.53079622    -0.49500
O1267       O  0.76743016  0.97208850  0.89830529    -0.55800
C1268       C  0.72428359  0.94105706  0.47260680     0.84300
O1269       O  0.82013968  0.95218567  0.51210208    -0.57700
O1270       O  0.77482986  0.75843309  0.98968841    -0.61000
C1271       C  0.52913342  0.84598309  0.95071555     0.85600
C1272       C  0.52920416  0.79657241  0.91874259    -0.54600
C1273       C  0.56285942  0.79038447  0.90865585     0.08500
C1274       C  0.59314686  0.83270550  0.93131010     0.19500
C1275       C  0.56245018  0.83477373  0.98952420    -0.55300
C1276       C  0.59528438  0.82696585  0.97969810     0.08600
C1277       C  0.54052754  0.89787643  0.92776675    -0.54900
C1278       C  0.57406042  0.89031735  0.91727972     0.09200
H1279       H  0.50456598  0.77089366  0.90375423     0.13700
H1280       H  0.62075262  0.82757696  0.92363508    -0.00500
H1281       H  0.56036438  0.83388119  0.52269044     0.14000
H1282       H  0.52184459  0.93377189  0.91592303     0.13800
C1283       C  0.42121715  0.84289024  0.55216700     0.85600
C1284       C  0.42697170  0.79591935  0.58689123    -0.54600
C1285       C  0.39700163  0.78972280  0.60419861     0.08500
C1286       C  0.36403953  0.83079688  0.58507135     0.19500
C1287       C  0.38441989  0.82890445  0.51912877    -0.55300
C1288       C  0.35482055  0.82198657  0.53563549     0.08600
C1289       C  0.41244792  0.89646585  0.57549985    -0.54900
C1290       C  0.38283465  0.88955035  0.59327916     0.09200
H1291       H  0.45267058  0.77061171  0.59727170     0.13700
H1292       H  0.33935216  0.82572382  0.59853134    -0.00500
H1293       H  0.38211457  0.82338289  0.48485035     0.14000
H1294       H  0.43119164  0.93292337  0.58365155     0.13800
In1295     In  0.57928142  0.00285292  0.82321774     1.36900
C1296       C  0.64307268  0.01587189  0.79483252     0.76700
O1297       O  0.54350870  0.71465897  0.85866642    -0.61700
O1298       O  0.59909517  0.74579878  0.86575255    -0.52700
C1299       C  0.50916380  0.99872546  0.76789076     0.69400
O1300       O  0.52945223  0.95459126  0.77865828    -0.47500
C1301       C  0.58285579  0.92563282  0.88380679     0.74100
O1302       O  0.61545171  0.05020871  0.78572273    -0.59400
O1303       O  0.59726218  0.97419519  0.89225369    -0.49500
O1304       O  0.63639750  0.97201640  0.81420018    -0.55800
C1305       C  0.56856779  0.74980447  0.87655848     0.84300
O1306       O  0.52681162  0.04466507  0.77970776    -0.57700
O1307       O  0.57207844  0.91298505  0.84407356    -0.61000
In1308     In  0.39543773  0.99791988  0.69436983     1.36900
C1309       C  0.33679500  0.99024053  0.73122838     0.76700
O1310       O  0.42185008  0.70948592  0.64853549    -0.61700
O1311       O  0.37191781  0.74583706  0.65858178    -0.52700
C1312       C  0.46799009  0.99743915  0.74480063     0.69400
O1313       O  0.44774420  0.04186784  0.73694396    -0.47500
C1314       C  0.38238001  0.92398017  0.63077692     0.74100
O1315       O  0.35808461  0.03342391  0.73534539    -0.59400
O1316       O  0.36506262  0.97080973  0.62731903    -0.49500
O1317       O  0.34790722  0.94916697  0.71242323    -0.55800
C1318       C  0.39704082  0.74788698  0.63835695     0.84300
O1319       O  0.44991162  0.95228561  0.73141207    -0.57700
O1320       O  0.40329546  0.91231827  0.66791175    -0.61000
C1321       C  0.45141857  0.84548255  0.52839256    -0.06300
C1322       C  0.46548166  0.89783442  0.51828525    -0.33800
C1323       C  0.48779114  0.90025655  0.98936526     0.35500
C1324       C  0.49487512  0.85018929  0.96789854    -0.06700
C1325       C  0.48045075  0.79813626  0.47815950    -0.33700
C1326       C  0.45950727  0.79533924  0.50801043     0.35400
H1327       H  0.45923084  0.93754160  0.03212253     0.15800
O1328       O  0.50375516  0.95154383  0.98388765    -0.61200
H1329       H  0.48766060  0.75796986  0.46560021     0.15800
O1330       O  0.44685896  0.74289203  0.51702104    -0.61300
H1331       H  0.42519416  0.73350588  0.49197044     0.42800
H1332       H  0.52719062  0.95412622  0.00798741     0.42700
C1333       C  0.98078233  0.01547512  0.55392268    -0.06300
C1334       C  0.98968850  0.73478890  0.53816061    -0.33800
C1335       C  0.01085370  0.73735462  0.50804938     0.35500
C1336       C  0.02215175  0.01967187  0.99124323    -0.06700
C1337       C  0.01361923  0.96732763  0.00762319    -0.33700
C1338       C  0.99392456  0.96480621  0.53871233     0.35400
H1339       H  0.97892597  0.77450237  0.54744013     0.15800
O1340       O  0.02003745  0.79009244  0.49571329    -0.61200
H1341       H  0.02387490  0.92747870  0.99765182     0.15800
O1342       O  0.98593970  0.91193928  0.55226500    -0.61300
H1343       H  0.96402719  0.89763574  0.02930528     0.42800
H1344       H  0.04359010  0.80105934  0.51770541     0.42700
loop_ 
_geom_bond_atom_site_label_1 
_geom_bond_atom_site_label_2 
_geom_bond_distance 
_geom_bond_site_symmetry_2 
_ccdc_geom_bond_type 
C1            C2   1.552       .  S
C1            C7   1.540       .  S
C1            C5   1.567       .  S
C1           C18   1.583       .  S
C2            H9   1.086       .  S
C2            C3   1.377       .  D
C3            C4   1.536       .  S
C3           C89   1.490       .  S
C4            C8   1.557       .  S
C4            C6   1.556       .  S
C4           H10   1.107       .  S
C5           H11   1.083       .  S
C5            C6   1.391       .  D
C6           C13   1.582       .  S
C7           H12   1.086       .  S
C7            C8   1.367       .  D
C8           C63   1.504       .  S
C13          C14   1.549       .  S
C13          C19   1.540       .  S
C13          C17   1.568   1_545  S
C14          H21   1.086       .  S
C14         C911   1.375   1_545  D
C15          C16   1.537       .  S
C15         C462   1.375       .  D
C15          C76   1.488       .  S
C16          C20   1.558       .  S
C16          C18   1.558       .  S
C16          H22   1.107       .  S
C17         H919   1.083       .  S
C17         C914   1.391       .  D
C18         C465   1.391       .  D
C19          H24   1.086       .  S
C19         C916   1.368   1_545  D
C20         C467   1.368       .  D
C20         C189   1.505       .  S
H23         C465   1.083       .  S
C25          C26   1.520       .  S
C25          C31   1.550       .  S
C25          C29   1.568       .  S
C25          C42   1.565       .  S
C26          H33   1.087       .  S
C26          C27   1.354       .  D
C27          C28   1.540       .  S
C27         C126   1.456       .  S
C28          C32   1.556       .  S
C28          C30   1.548       .  S
C28          H34   1.107       .  S
C29          H35   1.083       .  S
C29          C30   1.392       .  D
C30          C37   1.567       .  S
C31          H36   1.086       .  S
C31          C32   1.377       .  D
C32          C50   1.513       .  S
C37          C38   1.521       .  S
C37          C43   1.552       .  S
C37         C937   1.568       .  S
C38          H45   1.087       .  S
C38         C935   1.355       .  D
C39          C40   1.538       .  S
C39         C486   1.355       .  D
C39         C139   1.452       .  S
C40          C44   1.554       .  S
C40          C42   1.544       .  S
C40          H46   1.107       .  S
C41         C485   1.568       .  S
C41          H47   1.083       .  S
C41          C42   1.393       .  D
C43          H48   1.086       .  S
C43         C940   1.378       .  D
C44         C491   1.378       .  D
C44         C176   1.513       .  S
In49         O51   2.216       .  S
In49         O52   2.243       .  S
In49         O60   2.269       .  S
In49         O54   2.298       .  S
In49         O56   2.306       .  S
In49         O57   2.247       .  S
In49         O58   2.309       .  S
In49         O61   2.251       .  S
C50          O56   1.263       .  A
C50          O58   1.261       .  A
O51          C59   1.253       .  A
O52          C59   1.264       .  A
C53          O60   1.261       .  A
C53          O54   1.266       .  A
C53          C66   1.494   1_655  S
C55         C108   1.464       .  S
C55          O57   1.253       .  A
C55          O61   1.265       .  A
C59         C103   1.453       .  S
In62         O64   2.237       .  S
In62         O65   2.283       .  S
In62         O73   2.293       .  S
In62         O67   2.282       .  S
In62         O69   2.296       .  S
In62         O70   2.237       .  S
In62         O71   2.288       .  S
In62         O74   2.214       .  S
C63          O69   1.266       .  A
C63          O71   1.257       .  A
O64          C72   1.256       .  A
O65          C72   1.264       .  A
C66          O73   1.261       .  A
C66          O67   1.263       .  A
C68         C120   1.452       .  S
C68          O70   1.257       .  A
C68          O74   1.262       .  A
C72         C115   1.478       .  S
In75         O77   2.233       .  S
In75         O78   2.211       .  S
In75         O80   2.199       .  S
In75         O82   2.274       .  S
In75         O84   2.264       .  S
In75        O310   2.230       .  S
In75        O531   2.234       .  S
In75        O535   2.262       .  S
C76          O82   1.260       .  A
C76          O84   1.263       .  A
O77          C85   1.256       .  A
O78          C85   1.264       .  A
C79         C118   1.454       .  S
C79          O86   1.254       .  A
C79         O304   1.269       .  A
O80         C303   1.269       .  A
C81          O83   1.247       .  A
C81          O87   1.264       .  A
C81          C98   1.450   1_554  S
O83        In971   2.234       .  S
C85          C94   1.449       .  S
O86        In299   2.230       .  S
O87        In971   2.262       .  S
In88         O90   2.214   1_545  S
In88         O93   2.191       .  S
In88         O95   2.280       .  S
In88         O97   2.262       .  S
In88        O100   2.265       .  S
In88        O315   2.234       .  S
In88        O323   2.235       .  S
In88        O320   2.226       .  S
C89          O95   1.260       .  A
C89          O97   1.263       .  A
O90         C322   1.264       .  A
O91        In312   2.234       .  S
O91          C98   1.255   1_545  A
C92         C168   1.453       .  S
C92          O99   1.256       .  A
C92         O317   1.268   1_554  A
O93         C316   1.268       .  A
C94          O96   1.247       .  A
C94         O324   1.264   1_554  A
O96        In312   2.226   1_554  S
C98         O314   1.264       .  A
O99        In312   2.235   1_554  S
O100        C318   1.264       .  A
C101        C102   1.542       .  S
C101        C105   1.517       .  S
C101        C555   1.543       .  S
C101        C213   1.506       .  S
C102        H109   1.086       .  S
C102        C103   1.368       .  D
C103        C104   1.520       .  S
C104        C106   1.539       .  S
C104        C556   1.530       .  S
C104        H110   1.112       .  S
C105        H111   1.089   1_554  S
C105        C106   1.336       .  D
C106        C142   1.439       .  S
C107        C997   1.543       .  S
C107        H112   1.086       .  S
C107        C108   1.371       .  D
C108       C1000   1.530   1_545  S
C113        C114   1.547       .  S
C113        C117   1.512       .  S
C113        C567   1.533       .  S
C113        C216   1.510       .  S
C114        H121   1.086       .  S
C114        C115   1.370       .  D
C115        C116   1.537       .  S
C116        C118   1.547       .  S
C116        C568   1.534       .  S
C116        H122   1.111       .  S
C117        H347   1.089       .  S
C117        C118   1.340       .  D
C119       C1009   1.533       .  S
C119        H124   1.085       .  S
C119        C120   1.368       .  D
C120       C1012   1.534       .  S
H123        C341   1.089       .  S
In125       O127   2.171       .  S
In125       O128   2.199       .  S
In125       O130   2.197       .  S
In125       O132   2.200       .  S
In125       O133   2.193   1_554  S
In125       O134   2.226       .  S
In125       O137   2.212       .  S
In125       O360   2.196       .  S
C126        O132   1.264       .  A
C126        O134   1.262       .  A
O127        C135   1.266       .  A
O128        C135   1.260       .  A
C129        C156   1.442       .  S
C129        O136   1.254       .  A
C129        O354   1.263       .  A
O130        C353   1.263       .  A
C131        O133   1.253       .  A
C131        O137   1.268   1_556  A
C131        C148   1.424       .  S
C135        C144   1.425       .  S
O136       In349   2.196       .  S
In138       O140   2.171       .  S
In138       O143   2.192       .  S
In138       O145   2.195       .  S
In138       O147   2.218       .  S
In138       O365   2.194       .  S
In138       O373   2.194       .  S
In138       O818   2.193       .  S
In138       O598   2.214       .  S
C139        O145   1.263       .  A
C139        O147   1.262       .  A
O140        C372   1.266       .  A
O141       In362   2.194       .  S
O141        C148   1.260       .  A
C142        O149   1.253       .  A
C142        O367   1.262   1_554  A
O143        C366   1.262       .  A
C144        O146   1.253       .  A
C144        O374   1.267   1_554  A
O146      In1258   2.193   1_554  S
C148        O364   1.266       .  A
O149       In362   2.194   1_554  S
O150      In1034   2.214       .  S
O150        C368   1.267       .  A
C151        C152   1.544       .  S
C151        C157   1.541       .  S
C151        C155   1.516       .  S
C151        C204   1.506       .  S
C152        H159   1.086       .  S
C152        C153   1.366       .  D
C153        C154   1.522       .  S
C153        C185   1.455       .  S
C154        C158   1.530       .  S
C154        C156   1.542       .  S
C154        H160   1.111       .  S
C155        H385   1.089       .  S
C155        C156   1.337       .  D
C157        H162   1.086       .  S
C157        C158   1.371       .  D
C158        C181   1.463       .  S
H161        C379   1.089   1_554  S
C163        C164   1.543       .  S
C163        C169   1.536       .  S
C163        C167   1.512       .  S
C163        C201   1.508       .  S
C164        H171   1.086       .  S
C164        C165   1.368       .  D
C165        C166   1.537       .  S
C165        C198   1.474       .  S
C166        C170   1.532       .  S
C166        C168   1.545       .  S
C166        H172   1.111       .  S
C167        H173   1.089   1_554  S
C167        C168   1.342       .  D
C169        H174   1.085       .  S
C169        C170   1.368       .  D
C170        C194   1.451       .  S
In175       O186   2.273       .  S
In175       O180   2.295       .  S
In175       O182   2.308       .  S
In175       O183   2.242       .  S
In175       O184   2.305       .  S
In175       O187   2.250       .  S
In175       O625   2.219       .  S
In175       O626   2.246       .  S
C176        O182   1.263       .  A
C176        O184   1.262       .  A
O177      In1071   2.219       .  S
O177        C185   1.254       .  A
O178      In1071   2.246       .  S
O178        C185   1.262       .  A
C179        O186   1.261       .  A
C179        O180   1.265       .  A
C179        C192   1.494       .  S
C181        O183   1.254       .  A
C181        O187   1.265       .  A
In188       O199   2.295       .  S
In188       O193   2.282       .  S
In188       O195   2.293       .  S
In188       O196   2.233       .  S
In188       O197   2.292       .  S
In188       O200   2.222       .  S
In188       O638   2.237       .  S
In188       O639   2.271       .  S
C189        O195   1.265       .  A
C189        O197   1.257       .  A
O190      In1084   2.237   1_545  S
O190        C198   1.257       .  A
O191      In1084   2.271   1_545  S
O191        C198   1.264       .  A
C192        O199   1.262       .  A
C192        O193   1.262       .  A
C194        O196   1.255       .  A
C194        O200   1.263       .  A
C201        C202   1.405       .  A
C201        C206   1.411       .  A
C202        C427   1.396   1_554  A
C202        H431   1.079       .  S
C203        C204   1.416       .  A
C203        C426   1.396       .  A
C203        O208   1.371       .  S
C204        C429   1.406       .  A
C205        C206   1.383   1_556  A
C205        C428   1.406       .  A
C205        H209   1.082       .  S
C206        O210   1.374       .  S
H207        C426   1.079       .  S
O208        H212   0.992       .  S
O210        H211   0.992   1_554  S
C213        C218   1.413       .  A
C213        C662   1.408       .  A
C214        C215   1.396   1_655  A
C214       C1109   1.408       .  A
C214        H219   1.081       .  S
C215       C1336   1.415   1_554  A
C215        O220   1.370   1_554  S
C216        C217   1.405       .  A
C216        C887   1.415       .  A
C217        C442   1.383   1_455  A
C217        H221   1.084       .  S
C218        C441   1.383   1_655  A
C218        O222   1.373       .  S
O220        H224   0.992   1_556  S
O222        H447   0.991       .  S
H223        O446   0.991       .  S
C225        C226   1.552       .  S
C225        C231   1.540       .  S
C225        C229   1.567       .  S
C225        C242   1.583       .  S
C226        H233   1.086       .  S
C226        C227   1.377       .  D
C227        C228   1.536       .  S
C227        C313   1.490       .  S
C228        C232   1.557       .  S
C228        C230   1.556       .  S
C228        H234   1.107       .  S
C229        H235   1.083       .  S
C229        C230   1.391       .  D
C230        C237   1.582       .  S
C231        H236   1.086       .  S
C231        C232   1.367       .  D
C232        C287   1.504       .  S
C237        C238   1.549       .  S
C237        C243   1.540       .  S
C237        C241   1.568   1_545  S
C238        H245   1.086       .  S
C238       C1135   1.375   1_545  D
C239        C240   1.537       .  S
C239        C686   1.375       .  D
C239        C300   1.488       .  S
C240        C244   1.558       .  S
C240        C242   1.558       .  S
C240        H246   1.107       .  S
C241       H1143   1.083       .  S
C241       C1138   1.391       .  D
C242        C689   1.391       .  D
C243        H248   1.086       .  S
C243       C1140   1.368   1_545  D
C244        C691   1.368       .  D
C244        C413   1.505       .  S
H247        C689   1.083       .  S
C249        C250   1.520       .  S
C249        C255   1.550       .  S
C249        C253   1.568       .  S
C249        C266   1.565       .  S
C250        H257   1.087       .  S
C250        C251   1.354       .  D
C251        C252   1.540       .  S
C251        C350   1.456       .  S
C252        C256   1.556       .  S
C252        C254   1.548       .  S
C252        H258   1.107       .  S
C253        H259   1.083       .  S
C253        C254   1.392       .  D
C254        C261   1.567       .  S
C255        H260   1.086       .  S
C255        C256   1.377       .  D
C256        C274   1.513       .  S
C261        C262   1.521       .  S
C261        C267   1.552       .  S
C261       C1161   1.568       .  S
C262        H269   1.087       .  S
C262       C1159   1.355       .  D
C263        C264   1.538       .  S
C263        C710   1.355       .  D
C263        C363   1.452       .  S
C264        C268   1.554       .  S
C264        C266   1.544       .  S
C264        H270   1.107       .  S
C265        C709   1.568       .  S
C265        H271   1.083       .  S
C265        C266   1.393       .  D
C267        H272   1.086       .  S
C267       C1164   1.378       .  D
C268        C715   1.378       .  D
C268        C400   1.513       .  S
In273       O275   2.216       .  S
In273       O276   2.243       .  S
In273       O284   2.269       .  S
In273       O278   2.298       .  S
In273       O280   2.306       .  S
In273       O281   2.247       .  S
In273       O282   2.309       .  S
In273       O285   2.251       .  S
C274        O280   1.263       .  A
C274        O282   1.261       .  A
O275        C283   1.253       .  A
O276        C283   1.264       .  A
C277        O284   1.261       .  A
C277        O278   1.266       .  A
C277        C290   1.494   1_655  S
C279        C332   1.464       .  S
C279        O281   1.253       .  A
C279        O285   1.265       .  A
C283        C327   1.453       .  S
In286       O288   2.237       .  S
In286       O289   2.283       .  S
In286       O297   2.293       .  S
In286       O291   2.282       .  S
In286       O293   2.296       .  S
In286       O294   2.237       .  S
In286       O295   2.288       .  S
In286       O298   2.214       .  S
C287        O293   1.266       .  A
C287        O295   1.257       .  A
O288        C296   1.256       .  A
O289        C296   1.264       .  A
C290        O297   1.261       .  A
C290        O291   1.263       .  A
C292        C344   1.452       .  S
C292        O294   1.257       .  A
C292        O298   1.262       .  A
C296        C339   1.478       .  S
In299       O301   2.233       .  S
In299       O302   2.211       .  S
In299       O304   2.199       .  S
In299       O306   2.274       .  S
In299       O755   2.234       .  S
In299       O308   2.264       .  S
In299       O759   2.262       .  S
C300        O306   1.260       .  A
C300        O308   1.263       .  A
O301        C309   1.256       .  A
O302        C309   1.264       .  A
C303        C342   1.454   1_554  S
C303        O310   1.254       .  A
C305        O307   1.247       .  A
C305        O311   1.264       .  A
C305        C322   1.450       .  S
O307      In1195   2.234       .  S
C309        C318   1.449       .  S
O311      In1195   2.262       .  S
In312       O314   2.214   1_545  S
In312       O317   2.191       .  S
In312       O319   2.280       .  S
In312       O321   2.262       .  S
In312       O324   2.265       .  S
C313        O319   1.260       .  A
C313        O321   1.263       .  A
O315        C322   1.255   1_545  A
C316        C392   1.453       .  S
C316        O323   1.256       .  A
C318        O320   1.247       .  A
C325        C326   1.542       .  S
C325        C779   1.543       .  S
C325        C329   1.517       .  S
C325        C437   1.506       .  S
C326        H333   1.086       .  S
C326        C327   1.368       .  D
C327        C328   1.520       .  S
C328        C780   1.530       .  S
C328        C330   1.539       .  S
C328        H334   1.112       .  S
C329        H335   1.089       .  S
C329        C330   1.336       .  D
C330        C366   1.439       .  S
C331       C1221   1.543       .  S
C331        H336   1.086       .  S
C331        C332   1.371       .  D
C332       C1224   1.530   1_545  S
C337        C338   1.547       .  S
C337        C791   1.533       .  S
C337        C341   1.512   1_556  S
C337        C440   1.510       .  S
C338        H345   1.086       .  S
C338        C339   1.370       .  D
C339        C340   1.537       .  S
C340        C792   1.534       .  S
C340        C342   1.547       .  S
C340        H346   1.111       .  S
C341        C342   1.340   1_554  D
C343       C1233   1.533       .  S
C343        H348   1.085       .  S
C343        C344   1.368       .  D
C344       C1236   1.534       .  S
In349       O351   2.171       .  S
In349       O352   2.199       .  S
In349       O354   2.197       .  S
In349       O356   2.200       .  S
In349       O357   2.192       .  S
In349       O358   2.226       .  S
In349       O361   2.212       .  S
C350        O356   1.264       .  A
C350        O358   1.262       .  A
O351        C359   1.266       .  A
O352        C359   1.260       .  A
C353        C380   1.442   1_554  S
C353        O360   1.254       .  A
C355        O357   1.253       .  A
C355        O361   1.268       .  A
C355        C372   1.424       .  S
C359        C368   1.425       .  S
In362       O364   2.171       .  S
In362       O367   2.192       .  S
In362       O369   2.195       .  S
In362       O594   2.193   1_556  S
In362       O371   2.217       .  S
In362       O822   2.214       .  S
C363        O369   1.263       .  A
C363        O371   1.262       .  A
O365        C372   1.260       .  A
C366        O373   1.253       .  A
C368        O370   1.253       .  A
O370      In1034   2.193       .  S
O374      In1258   2.214       .  S
C375        C376   1.544       .  S
C375        C381   1.541       .  S
C375        C379   1.516       .  S
C375        C428   1.506       .  S
C376        H383   1.086       .  S
C376        C377   1.366       .  D
C377        C378   1.522       .  S
C377        C409   1.455       .  S
C378        C382   1.530       .  S
C378        C380   1.542       .  S
C378        H384   1.111       .  S
C379        C380   1.337       .  D
C381        H386   1.086       .  S
C381        C382   1.371       .  D
C382        C405   1.463       .  S
C387        C388   1.543       .  S
C387        C393   1.536       .  S
C387        C391   1.512       .  S
C387        C425   1.508       .  S
C388        H395   1.086       .  S
C388        C389   1.368       .  D
C389        C390   1.537       .  S
C389        C422   1.474       .  S
C390        C394   1.532       .  S
C390        C392   1.545       .  S
C390        H396   1.111       .  S
C391        H397   1.089       .  S
C391        C392   1.342       .  D
C393        H398   1.085       .  S
C393        C394   1.368       .  D
C394        C418   1.451       .  S
In399       O849   2.219       .  S
In399       O850   2.246       .  S
In399       O410   2.273       .  S
In399       O404   2.295       .  S
In399       O406   2.309       .  S
In399       O407   2.242       .  S
In399       O408   2.305       .  S
In399       O411   2.250       .  S
C400        O406   1.263       .  A
C400        O408   1.262       .  A
O401      In1295   2.219       .  S
O401        C409   1.254       .  A
O402      In1295   2.246       .  S
O402        C409   1.262       .  A
C403        O410   1.261       .  A
C403        O404   1.265       .  A
C403        C416   1.494       .  S
C405        O407   1.254       .  A
C405        O411   1.265       .  A
In412       O862   2.237       .  S
In412       O863   2.271       .  S
In412       O423   2.295       .  S
In412       O417   2.282       .  S
In412       O419   2.293       .  S
In412       O420   2.233       .  S
In412       O421   2.292       .  S
In412       O424   2.222       .  S
C413        O419   1.265       .  A
C413        O421   1.257       .  A
O414      In1308   2.237   1_545  S
O414        C422   1.257       .  A
O415      In1308   2.271   1_545  S
O415        C422   1.264       .  A
C416        O423   1.262       .  A
C416        O417   1.262       .  A
C418        O420   1.255       .  A
C418        O424   1.263       .  A
C425        C426   1.405       .  A
C425        C430   1.411       .  A
C427        C428   1.416       .  A
C427        O432   1.371       .  S
C429        C430   1.383       .  A
C429        H433   1.082       .  S
C430        O434   1.374       .  S
O432        H436   0.992   1_556  S
O434        H435   0.992       .  S
C437        C886   1.408       .  A
C437        C442   1.413       .  A
C438       C1333   1.408       .  A
C438        C439   1.396   1_655  A
C438        H443   1.081       .  S
C439       C1112   1.415       .  A
C439        O444   1.370       .  S
C440        C663   1.415   1_556  A
C440        C441   1.405   1_556  A
C441        H445   1.084   1_554  S
C442        O446   1.373       .  S
O444        H448   0.992       .  S
C449        C450   1.552       .  S
C449        C455   1.540       .  S
C449        C453   1.567       .  S
C449        C466   1.583       .  S
C450        H457   1.086       .  S
C450        C451   1.377       .  D
C451        C452   1.536       .  S
C451        C537   1.490       .  S
C452        C456   1.557       .  S
C452        C454   1.556       .  S
C452        H458   1.107       .  S
C453        H459   1.083       .  S
C453        C454   1.391       .  D
C454        C461   1.582       .  S
C455        H460   1.086       .  S
C455        C456   1.367       .  D
C456        C511   1.504       .  S
C461        C462   1.549       .  S
C461        C467   1.540       .  S
C461        C465   1.568       .  S
C462        H469   1.086       .  S
C463        C464   1.537       .  S
C463        C910   1.375       .  D
C463        C524   1.488       .  S
C464        C468   1.558       .  S
C464        C466   1.558       .  S
C464        H470   1.107       .  S
C466        C913   1.391       .  D
C467        H472   1.086       .  S
C468        C915   1.368       .  D
C468        C637   1.505       .  S
H471        C913   1.083       .  S
C473        C474   1.520       .  S
C473        C479   1.550       .  S
C473        C477   1.568       .  S
C473        C490   1.565       .  S
C474        H481   1.087       .  S
C474        C475   1.354       .  D
C475        C476   1.540       .  S
C475        C574   1.456       .  S
C476        C480   1.556       .  S
C476        C478   1.548       .  S
C476        H482   1.107       .  S
C477        H483   1.083       .  S
C477        C478   1.392       .  D
C478        C485   1.567       .  S
C479        H484   1.086       .  S
C479        C480   1.377       .  D
C480        C498   1.513       .  S
C485        C486   1.521       .  S
C485        C491   1.552       .  S
C486        H493   1.087       .  S
C487        C488   1.538       .  S
C487        C934   1.355       .  D
C487        C587   1.452       .  S
C488        C492   1.554       .  S
C488        C490   1.544       .  S
C488        H494   1.107       .  S
C489        C933   1.568       .  S
C489        H495   1.083       .  S
C489        C490   1.393       .  D
C491        H496   1.086       .  S
C492        C939   1.378       .  D
C492        C624   1.513       .  S
In497       O499   2.216       .  S
In497       O500   2.243       .  S
In497       O508   2.269       .  S
In497       O502   2.298       .  S
In497       O504   2.306       .  S
In497       O505   2.247       .  S
In497       O506   2.309       .  S
In497       O509   2.251       .  S
C498        O504   1.263       .  A
C498        O506   1.261       .  A
O499        C507   1.253       .  A
O500        C507   1.264       .  A
C501        O508   1.261       .  A
C501        O502   1.266       .  A
C501        C514   1.494   1_655  S
C503        C556   1.464       .  S
C503        O505   1.253       .  A
C503        O509   1.265       .  A
C507        C551   1.453       .  S
In510       O512   2.237       .  S
In510       O513   2.283       .  S
In510       O521   2.293       .  S
In510       O515   2.282       .  S
In510       O517   2.296       .  S
In510       O518   2.237       .  S
In510       O519   2.288       .  S
In510       O522   2.214       .  S
C511        O517   1.266       .  A
C511        O519   1.257       .  A
O512        C520   1.256       .  A
O513        C520   1.264       .  A
C514        O521   1.261       .  A
C514        O515   1.263       .  A
C516        C568   1.452       .  S
C516        O518   1.257       .  A
C516        O522   1.262       .  A
C520        C563   1.478       .  S
In523       O525   2.233       .  S
In523       O526   2.211       .  S
In523       O758   2.230       .  S
In523       O528   2.199       .  S
In523       O530   2.274       .  S
In523       O979   2.234       .  S
In523       O532   2.264       .  S
In523       O983   2.262       .  S
C524        O530   1.260       .  A
C524        O532   1.263       .  A
O525        C533   1.256       .  A
O526        C533   1.264       .  A
C527        C566   1.454       .  S
C527        O534   1.254       .  A
C527        O752   1.269       .  A
O528        C751   1.269       .  A
C529        O531   1.247       .  A
C529        O535   1.264       .  A
C529        C546   1.450   1_554  S
C533        C542   1.449       .  S
O534       In747   2.230       .  S
In536       O538   2.214       .  S
In536       O763   2.234       .  S
In536       O771   2.235       .  S
In536       O541   2.191       .  S
In536       O543   2.280       .  S
In536       O768   2.226       .  S
In536       O545   2.262       .  S
In536       O548   2.265       .  S
C537        O543   1.260       .  A
C537        O545   1.263       .  A
O538        C770   1.264       .  A
O539       In760   2.234       .  S
O539        C546   1.255       .  A
C540        C616   1.453       .  S
C540        O547   1.256       .  A
C540        O765   1.268   1_554  A
O541        C764   1.268       .  A
C542        O544   1.247       .  A
C542        O772   1.264   1_554  A
O544       In760   2.226   1_554  S
C546        O762   1.264       .  A
O547       In760   2.235   1_554  S
O548        C766   1.264       .  A
C549        C550   1.542       .  S
C549       C1003   1.543       .  S
C549        C553   1.517       .  S
C549        C661   1.506       .  S
C550        H557   1.086       .  S
C550        C551   1.368       .  D
C551        C552   1.520       .  S
C552       C1004   1.530       .  S
C552        C554   1.539       .  S
C552        H558   1.112       .  S
C553        H559   1.089   1_554  S
C553        C554   1.336       .  D
C554        C590   1.439       .  S
C555        H560   1.086       .  S
C555        C556   1.371       .  D
C561        C562   1.547       .  S
C561       C1015   1.533       .  S
C561        C565   1.512       .  S
C561        C664   1.510       .  S
C562        H569   1.086       .  S
C562        C563   1.370       .  D
C563        C564   1.537       .  S
C564       C1016   1.534       .  S
C564        C566   1.547       .  S
C564        H570   1.111       .  S
C565        H795   1.089       .  S
C565        C566   1.340       .  D
C567        H572   1.085       .  S
C567        C568   1.368       .  D
H571        C789   1.089       .  S
In573       O575   2.171       .  S
In573       O576   2.199       .  S
In573       O808   2.196       .  S
In573       O578   2.197       .  S
In573       O580   2.200       .  S
In573       O581   2.193   1_554  S
In573       O582   2.226       .  S
In573       O585   2.212       .  S
C574        O580   1.264       .  A
C574        O582   1.262       .  A
O575        C583   1.266       .  A
O576        C583   1.260       .  A
C577        C604   1.442       .  S
C577        O584   1.254       .  A
C577        O802   1.263       .  A
O578        C801   1.263       .  A
C579        O581   1.253       .  A
C579        O585   1.268   1_556  A
C579        C596   1.424       .  S
C583        C592   1.425       .  S
O584       In797   2.196       .  S
In586       O588   2.171       .  S
In586       O813   2.194       .  S
In586       O821   2.194       .  S
In586       O591   2.192       .  S
In586       O593   2.195       .  S
In586      O1266   2.194       .  S
In586       O595   2.218       .  S
In586      O1046   2.214       .  S
C587        O593   1.263       .  A
C587        O595   1.262       .  A
O588        C820   1.266       .  A
O589       In810   2.194       .  S
O589        C596   1.260       .  A
C590        O597   1.253       .  A
C590        O815   1.262   1_554  A
O591        C814   1.262       .  A
C592        O594   1.253       .  A
C592        O822   1.267   1_554  A
C596        O812   1.266       .  A
O597       In810   2.194   1_554  S
O598        C816   1.267       .  A
C599        C600   1.544       .  S
C599        C605   1.541       .  S
C599        C603   1.516       .  S
C599        C652   1.506       .  S
C600        H607   1.086       .  S
C600        C601   1.366       .  D
C601        C602   1.522       .  S
C601        C633   1.455       .  S
C602        C606   1.530       .  S
C602        C604   1.542       .  S
C602        H608   1.111       .  S
C603        H833   1.089       .  S
C603        C604   1.337       .  D
C605        H610   1.086       .  S
C605        C606   1.371       .  D
C606        C629   1.463       .  S
H609        C827   1.089   1_554  S
C611        C612   1.543       .  S
C611        C617   1.536       .  S
C611        C615   1.512       .  S
C611        C649   1.508       .  S
C612        H619   1.086       .  S
C612        C613   1.368       .  D
C613        C614   1.537       .  S
C613        C646   1.474       .  S
C614        C618   1.532       .  S
C614        C616   1.545       .  S
C614        H620   1.111       .  S
C615        H621   1.089   1_554  S
C615        C616   1.342       .  D
C617        H622   1.085       .  S
C617        C618   1.368       .  D
C618        C642   1.451       .  S
In623      O1073   2.219       .  S
In623      O1074   2.246       .  S
In623       O634   2.273       .  S
In623       O628   2.295       .  S
In623       O630   2.308       .  S
In623       O631   2.242       .  S
In623       O632   2.305       .  S
In623       O635   2.249       .  S
C624        O630   1.263       .  A
C624        O632   1.262       .  A
O625        C633   1.254       .  A
O626        C633   1.262       .  A
C627        O634   1.261       .  A
C627        O628   1.265       .  A
C627        C640   1.494       .  S
C629        O631   1.254       .  A
C629        O635   1.265       .  A
In636      O1086   2.237       .  S
In636      O1087   2.271       .  S
In636       O647   2.295       .  S
In636       O641   2.282       .  S
In636       O643   2.293       .  S
In636       O644   2.233       .  S
In636       O645   2.292       .  S
In636       O648   2.222       .  S
C637        O643   1.265       .  A
C637        O645   1.257       .  A
O638        C646   1.257       .  A
O639        C646   1.264       .  A
C640        O647   1.262       .  A
C640        O641   1.262       .  A
C642        O644   1.255       .  A
C642        O648   1.263       .  A
C649        C650   1.405       .  A
C649        C654   1.411       .  A
C650        C875   1.396   1_554  A
C650        H879   1.079       .  S
C651        C874   1.396       .  A
C651        C652   1.416       .  A
C651        O656   1.371       .  S
C652        C877   1.406       .  A
C653        C876   1.406       .  A
C653        C654   1.383   1_556  A
C653        H657   1.082       .  S
C654        O658   1.374       .  S
H655        C874   1.079       .  S
O656        H660   0.992       .  S
O658        H659   0.992   1_554  S
C661       C1110   1.408       .  A
C661        C666   1.413       .  A
C662        C663   1.396   1_655  A
C662        H667   1.081       .  S
C663        O668   1.370   1_554  S
C664       C1335   1.415       .  A
C664        C665   1.405       .  A
C665        C890   1.383   1_455  A
C665        H669   1.084       .  S
C666        C889   1.383   1_655  A
C666        O670   1.373       .  S
O668        H672   0.992   1_556  S
O670        H895   0.991       .  S
H671        O894   0.991       .  S
C673        C674   1.552       .  S
C673        C679   1.540       .  S
C673        C677   1.567       .  S
C673        C690   1.583       .  S
C674        H681   1.086       .  S
C674        C675   1.377       .  D
C675        C676   1.536       .  S
C675        C761   1.490       .  S
C676        C680   1.557       .  S
C676        C678   1.556       .  S
C676        H682   1.107       .  S
C677        H683   1.083       .  S
C677        C678   1.391       .  D
C678        C685   1.582       .  S
C679        H684   1.086       .  S
C679        C680   1.367       .  D
C680        C735   1.504       .  S
C685        C686   1.549       .  S
C685        C691   1.540       .  S
C685        C689   1.568       .  S
C686        H693   1.086       .  S
C687        C688   1.537       .  S
C687       C1134   1.375       .  D
C687        C748   1.488       .  S
C688        C692   1.558       .  S
C688        C690   1.558       .  S
C688        H694   1.107       .  S
C690       C1137   1.391       .  D
C691        H696   1.086       .  S
C692       C1139   1.368       .  D
C692        C861   1.505       .  S
H695       C1137   1.083       .  S
C697        C698   1.520       .  S
C697        C703   1.550       .  S
C697        C701   1.568       .  S
C697        C714   1.565       .  S
C698        H705   1.087       .  S
C698        C699   1.354       .  D
C699        C700   1.540       .  S
C699        C798   1.456       .  S
C700        C704   1.556       .  S
C700        C702   1.548       .  S
C700        H706   1.107       .  S
C701        H707   1.083       .  S
C701        C702   1.392       .  D
C702        C709   1.567       .  S
C703        H708   1.086       .  S
C703        C704   1.377       .  D
C704        C722   1.513       .  S
C709        C710   1.521       .  S
C709        C715   1.552       .  S
C710        H717   1.087       .  S
C711        C712   1.538       .  S
C711       C1158   1.355       .  D
C711        C811   1.452       .  S
C712        C716   1.554       .  S
C712        C714   1.544       .  S
C712        H718   1.107       .  S
C713       C1157   1.568       .  S
C713        H719   1.083       .  S
C713        C714   1.393       .  D
C715        H720   1.086       .  S
C716       C1163   1.378       .  D
C716        C848   1.513       .  S
In721       O723   2.216       .  S
In721       O724   2.243       .  S
In721       O732   2.269       .  S
In721       O726   2.298       .  S
In721       O728   2.306       .  S
In721       O729   2.247       .  S
In721       O730   2.309       .  S
In721       O733   2.251       .  S
C722        O728   1.263       .  A
C722        O730   1.261       .  A
O723        C731   1.253       .  A
O724        C731   1.264       .  A
C725        O732   1.261       .  A
C725        O726   1.266       .  A
C725        C738   1.494   1_655  S
C727        C780   1.464       .  S
C727        O729   1.253       .  A
C727        O733   1.265       .  A
C731        C775   1.453       .  S
In734       O736   2.237       .  S
In734       O737   2.283       .  S
In734       O745   2.293       .  S
In734       O739   2.282       .  S
In734       O741   2.296       .  S
In734       O742   2.237       .  S
In734       O743   2.288       .  S
In734       O746   2.214       .  S
C735        O741   1.266       .  A
C735        O743   1.257       .  A
O736        C744   1.256       .  A
O737        C744   1.264       .  A
C738        O745   1.261       .  A
C738        O739   1.263       .  A
C740        C792   1.452       .  S
C740        O742   1.257       .  A
C740        O746   1.262       .  A
C744        C787   1.478       .  S
In747       O749   2.233       .  S
In747       O750   2.211       .  S
In747       O752   2.199       .  S
In747       O754   2.274       .  S
In747      O1203   2.234       .  S
In747       O756   2.264       .  S
In747      O1207   2.262       .  S
C748        O754   1.260       .  A
C748        O756   1.263       .  A
O749        C757   1.256       .  A
O750        C757   1.264       .  A
C751        C790   1.454   1_554  S
C751        O758   1.254       .  A
C753        O755   1.247       .  A
C753        O759   1.264       .  A
C753        C770   1.450       .  S
C757        C766   1.449       .  S
In760       O762   2.214       .  S
In760       O765   2.191       .  S
In760       O767   2.280       .  S
In760       O769   2.262       .  S
In760       O772   2.265       .  S
C761        O767   1.260       .  A
C761        O769   1.263       .  A
O763        C770   1.255       .  A
C764        C840   1.453       .  S
C764        O771   1.256       .  A
C766        O768   1.247       .  A
C773        C774   1.542       .  S
C773       C1227   1.543       .  S
C773        C777   1.517       .  S
C773        C885   1.506       .  S
C774        H781   1.086       .  S
C774        C775   1.368       .  D
C775        C776   1.520       .  S
C776       C1228   1.530       .  S
C776        C778   1.539       .  S
C776        H782   1.112       .  S
C777        H783   1.089       .  S
C777        C778   1.336       .  D
C778        C814   1.439       .  S
C779        H784   1.086       .  S
C779        C780   1.371       .  D
C785        C786   1.547       .  S
C785       C1239   1.533       .  S
C785        C789   1.512   1_556  S
C785        C888   1.510       .  S
C786        H793   1.086       .  S
C786        C787   1.370       .  D
C787        C788   1.537       .  S
C788       C1240   1.535       .  S
C788        C790   1.547       .  S
C788        H794   1.111       .  S
C789        C790   1.340   1_554  D
C791        H796   1.085       .  S
C791        C792   1.368       .  D
In797       O799   2.171       .  S
In797       O800   2.199       .  S
In797       O802   2.197       .  S
In797       O804   2.200       .  S
In797       O805   2.192       .  S
In797       O806   2.226       .  S
In797       O809   2.212       .  S
C798        O804   1.264       .  A
C798        O806   1.262       .  A
O799        C807   1.266       .  A
O800        C807   1.260       .  A
C801        C828   1.442   1_554  S
C801        O808   1.254       .  A
C803        O805   1.253       .  A
C803        O809   1.268       .  A
C803        C820   1.424       .  S
C807        C816   1.425       .  S
In810       O812   2.171       .  S
In810       O815   2.192       .  S
In810       O817   2.195       .  S
In810      O1042   2.193   1_556  S
In810       O819   2.218       .  S
In810      O1270   2.214       .  S
C811        O817   1.263       .  A
C811        O819   1.262       .  A
O813        C820   1.260       .  A
C814        O821   1.253       .  A
C816        O818   1.253       .  A
C823        C824   1.544       .  S
C823        C829   1.541       .  S
C823        C827   1.516       .  S
C823        C876   1.506       .  S
C824        H831   1.086       .  S
C824        C825   1.366       .  D
C825        C826   1.522       .  S
C825        C857   1.455       .  S
C826        C830   1.530       .  S
C826        C828   1.542       .  S
C826        H832   1.111       .  S
C827        C828   1.337       .  D
C829        H834   1.086       .  S
C829        C830   1.371       .  D
C830        C853   1.463       .  S
C835        C836   1.543       .  S
C835        C841   1.536       .  S
C835        C839   1.512       .  S
C835        C873   1.508       .  S
C836        H843   1.086       .  S
C836        C837   1.368       .  D
C837        C838   1.537       .  S
C837        C870   1.474       .  S
C838        C842   1.532       .  S
C838        C840   1.545       .  S
C838        H844   1.111       .  S
C839        H845   1.089       .  S
C839        C840   1.342       .  D
C841        H846   1.085       .  S
C841        C842   1.368       .  D
C842        C866   1.451       .  S
In847      O1297   2.219       .  S
In847      O1298   2.246       .  S
In847       O858   2.273       .  S
In847       O852   2.295       .  S
In847       O854   2.308       .  S
In847       O855   2.242       .  S
In847       O856   2.305       .  S
In847       O859   2.250       .  S
C848        O854   1.263       .  A
C848        O856   1.262       .  A
O849        C857   1.254       .  A
O850        C857   1.262       .  A
C851        O858   1.261       .  A
C851        O852   1.265       .  A
C851        C864   1.494       .  S
C853        O855   1.254       .  A
C853        O859   1.265       .  A
In860      O1310   2.237       .  S
In860      O1311   2.271       .  S
In860       O871   2.295       .  S
In860       O865   2.282       .  S
In860       O867   2.293       .  S
In860       O868   2.233       .  S
In860       O869   2.292       .  S
In860       O872   2.222       .  S
C861        O867   1.265       .  A
C861        O869   1.257       .  A
O862        C870   1.257       .  A
O863        C870   1.264       .  A
C864        O871   1.262       .  A
C864        O865   1.262       .  A
C866        O868   1.255       .  A
C866        O872   1.263       .  A
C873        C874   1.405       .  A
C873        C878   1.411       .  A
C875        C876   1.416       .  A
C875        O880   1.371       .  S
C877        C878   1.383       .  A
C877        H881   1.082       .  S
C878        O882   1.374       .  S
O880        H884   0.992   1_556  S
O882        H883   0.992       .  S
C885       C1334   1.408       .  A
C885        C890   1.413       .  A
C886        C887   1.396   1_655  A
C886        H891   1.081       .  S
C887        O892   1.370       .  S
C888       C1111   1.415   1_556  A
C888        C889   1.405   1_556  A
C889        H893   1.084   1_554  S
C890        O894   1.373       .  S
O892        H896   0.992       .  S
C897        C898   1.552       .  S
C897        C903   1.540       .  S
C897        C901   1.567       .  S
C897        C914   1.583       .  S
C898        H905   1.086       .  S
C898        C899   1.377       .  D
C899        C900   1.536       .  S
C899        C985   1.490       .  S
C900        C904   1.557       .  S
C900        C902   1.556       .  S
C900        H906   1.107       .  S
C901        H907   1.083       .  S
C901        C902   1.391       .  D
C902        C909   1.582       .  S
C903        H908   1.086       .  S
C903        C904   1.367       .  D
C904        C959   1.504       .  S
C909        C910   1.549       .  S
C909        C915   1.540       .  S
C909        C913   1.568       .  S
C910        H917   1.086       .  S
C911        C912   1.537       .  S
C911        C972   1.488       .  S
C912        C916   1.558       .  S
C912        C914   1.558       .  S
C912        H918   1.107       .  S
C915        H920   1.086       .  S
C916       C1085   1.505       .  S
C921        C922   1.520       .  S
C921        C927   1.550       .  S
C921        C925   1.568       .  S
C921        C938   1.565       .  S
C922        H929   1.087       .  S
C922        C923   1.354       .  D
C923        C924   1.540       .  S
C923       C1022   1.456       .  S
C924        C928   1.556       .  S
C924        C926   1.548       .  S
C924        H930   1.107       .  S
C925        H931   1.083       .  S
C925        C926   1.392       .  D
C926        C933   1.567       .  S
C927        H932   1.086       .  S
C927        C928   1.377       .  D
C928        C946   1.513       .  S
C933        C934   1.521       .  S
C933        C939   1.552       .  S
C934        H941   1.087       .  S
C935        C936   1.538   1_545  S
C935       C1035   1.452       .  S
C936        C940   1.554   1_565  S
C936        C938   1.544       .  S
C936        H942   1.107       .  S
C937        H943   1.083       .  S
C937        C938   1.393   1_545  D
C939        H944   1.086       .  S
C940       C1072   1.513       .  S
In945       O947   2.216       .  S
In945       O948   2.243       .  S
In945       O956   2.269       .  S
In945       O950   2.298       .  S
In945       O952   2.306       .  S
In945       O953   2.247       .  S
In945       O954   2.309       .  S
In945       O957   2.251       .  S
C946        O952   1.263       .  A
C946        O954   1.261       .  A
O947        C955   1.253       .  A
O948        C955   1.264       .  A
C949        O956   1.261       .  A
C949        O950   1.266       .  A
C949        C962   1.494   1_655  S
C951       C1004   1.464       .  S
C951        O953   1.253       .  A
C951        O957   1.265       .  A
C955        C999   1.453       .  S
In958       O960   2.237       .  S
In958       O961   2.283       .  S
In958       O969   2.293       .  S
In958       O963   2.282       .  S
In958       O965   2.296       .  S
In958       O966   2.237       .  S
In958       O967   2.288       .  S
In958       O970   2.214       .  S
C959        O965   1.266       .  A
C959        O967   1.257       .  A
O960        C968   1.256       .  A
O961        C968   1.264       .  A
C962        O969   1.261       .  A
C962        O963   1.263       .  A
C964       C1016   1.452       .  S
C964        O966   1.257       .  A
C964        O970   1.262       .  A
C968       C1011   1.478       .  S
In971       O973   2.233       .  S
In971       O974   2.211       .  S
In971      O1206   2.230       .  S
In971       O976   2.199       .  S
In971       O978   2.274       .  S
In971       O980   2.264       .  S
C972        O978   1.260       .  A
C972        O980   1.263       .  A
O973        C981   1.256       .  A
O974        C981   1.264       .  A
C975       C1014   1.454       .  S
C975        O982   1.254       .  A
C975       O1200   1.269       .  A
O976       C1199   1.269       .  A
C977        O979   1.247       .  A
C977        O983   1.264       .  A
C977        C994   1.450   1_554  S
C981        C990   1.449       .  S
O982      In1195   2.230       .  S
In984       O986   2.214       .  S
In984      O1211   2.234       .  S
In984      O1219   2.235       .  S
In984       O989   2.191       .  S
In984       O991   2.280       .  S
In984      O1216   2.226       .  S
In984       O993   2.262       .  S
In984       O996   2.265       .  S
C985        O991   1.260       .  A
C985        O993   1.263       .  A
O986       C1218   1.264       .  A
O987      In1208   2.234       .  S
O987        C994   1.255       .  A
C988       C1064   1.453       .  S
C988        O995   1.256       .  A
C988       O1213   1.268   1_554  A
O989       C1212   1.268       .  A
C990        O992   1.247       .  A
C990       O1220   1.264   1_554  A
O992      In1208   2.226   1_554  S
C994       O1210   1.264       .  A
O995      In1208   2.235   1_554  S
O996       C1214   1.264       .  A
C997        C998   1.542   1_545  S
C997       C1001   1.517   1_545  S
C997       C1109   1.506       .  S
C998       H1005   1.086       .  S
C998        C999   1.368       .  D
C999       C1000   1.520       .  S
C1000      C1002   1.539       .  S
C1000      H1006   1.112       .  S
C1001      H1007   1.089   1_554  S
C1001      C1002   1.336       .  D
C1002      C1038   1.439       .  S
C1003      H1008   1.086       .  S
C1003      C1004   1.371       .  D
C1009      C1010   1.547   1_545  S
C1009      C1013   1.512       .  S
C1009      C1112   1.510       .  S
C1010      H1017   1.086       .  S
C1010      C1011   1.370       .  D
C1011      C1012   1.537   1_565  S
C1012      C1014   1.547   1_545  S
C1012      H1018   1.111   1_545  S
C1013      H1243   1.089   1_545  S
C1013      C1014   1.340   1_545  D
C1015      H1020   1.085       .  S
C1015      C1016   1.368       .  D
H1019      C1237   1.089   1_565  S
In1021     O1023   2.171       .  S
In1021     O1024   2.199       .  S
In1021     O1256   2.196       .  S
In1021     O1026   2.197       .  S
In1021     O1028   2.200       .  S
In1021     O1029   2.193   1_554  S
In1021     O1030   2.226       .  S
In1021     O1033   2.212       .  S
C1022      O1028   1.264       .  A
C1022      O1030   1.262       .  A
O1023      C1031   1.266       .  A
O1024      C1031   1.260       .  A
C1025      C1052   1.442       .  S
C1025      O1032   1.254       .  A
C1025      O1250   1.263       .  A
O1026      C1249   1.263       .  A
C1027      O1029   1.253       .  A
C1027      O1033   1.268   1_556  A
C1027      C1044   1.424       .  S
C1031      C1040   1.425       .  S
O1032     In1245   2.196       .  S
In1034     O1036   2.171   1_545  S
In1034     O1261   2.194   1_545  S
In1034     O1269   2.194   1_545  S
In1034     O1039   2.192       .  S
In1034     O1041   2.195       .  S
In1034     O1043   2.218   1_545  S
C1035      O1041   1.263       .  A
C1035      O1043   1.262   1_545  A
O1036      C1268   1.266       .  A
O1037     In1258   2.194   1_565  S
O1037      C1044   1.260       .  A
C1038      O1045   1.253       .  A
C1038      O1263   1.262   1_564  A
O1039      C1262   1.262   1_545  A
C1040      O1042   1.253       .  A
C1040      O1270   1.267   1_554  A
C1044      O1260   1.266       .  A
O1045     In1258   2.194   1_564  S
O1046      C1264   1.267       .  A
C1047      C1048   1.544       .  S
C1047      C1053   1.541       .  S
C1047      C1051   1.516       .  S
C1047      C1100   1.506       .  S
C1048      H1055   1.086       .  S
C1048      C1049   1.366       .  D
C1049      C1050   1.522       .  S
C1049      C1081   1.455       .  S
C1050      C1054   1.530       .  S
C1050      C1052   1.542       .  S
C1050      H1056   1.111       .  S
C1051      H1281   1.089       .  S
C1051      C1052   1.337       .  D
C1053      H1058   1.086       .  S
C1053      C1054   1.371       .  D
C1054      C1077   1.463       .  S
H1057      C1275   1.089   1_554  S
C1059      C1060   1.543       .  S
C1059      C1065   1.536       .  S
C1059      C1063   1.512       .  S
C1059      C1097   1.508       .  S
C1060      H1067   1.086       .  S
C1060      C1061   1.368       .  D
C1061      C1062   1.537       .  S
C1061      C1094   1.474       .  S
C1062      C1066   1.532       .  S
C1062      C1064   1.545       .  S
C1062      H1068   1.111       .  S
C1063      H1069   1.089   1_554  S
C1063      C1064   1.342       .  D
C1065      H1070   1.085       .  S
C1065      C1066   1.368       .  D
C1066      C1090   1.451       .  S
In1071     O1082   2.273       .  S
In1071     O1076   2.295   1_545  S
In1071     O1078   2.308       .  S
In1071     O1079   2.242   1_545  S
In1071     O1080   2.305   1_545  S
In1071     O1083   2.249   1_545  S
C1072      O1078   1.263       .  A
C1072      O1080   1.262   1_545  A
O1073      C1081   1.254       .  A
O1074      C1081   1.262       .  A
C1075      O1082   1.261   1_565  A
C1075      O1076   1.265       .  A
C1075      C1088   1.494       .  S
C1077      O1079   1.254       .  A
C1077      O1083   1.265       .  A
In1084     O1095   2.295       .  S
In1084     O1089   2.282   1_565  S
In1084     O1091   2.293   1_565  S
In1084     O1092   2.233       .  S
In1084     O1093   2.292       .  S
In1084     O1096   2.222       .  S
C1085      O1091   1.265   1_565  A
C1085      O1093   1.257       .  A
O1086      C1094   1.257       .  A
O1087      C1094   1.264       .  A
C1088      O1095   1.262       .  A
C1088      O1089   1.262   1_565  A
C1090      O1092   1.255       .  A
C1090      O1096   1.263       .  A
C1097      C1098   1.405       .  A
C1097      C1102   1.411       .  A
C1098      C1323   1.396   1_554  A
C1098      H1327   1.079       .  S
C1099      C1322   1.396       .  A
C1099      C1100   1.416       .  A
C1099      O1104   1.371       .  S
C1100      C1325   1.406       .  A
C1101      C1324   1.406       .  A
C1101      C1102   1.383   1_556  A
C1101      H1105   1.082       .  S
C1102      O1106   1.374       .  S
H1103      C1322   1.079       .  S
O1104      H1108   0.992       .  S
O1106      H1107   0.992   1_554  S
C1109      C1114   1.413   1_545  A
C1110      C1111   1.396   1_655  A
C1110      H1115   1.081       .  S
C1111      O1116   1.370   1_554  S
C1112      C1113   1.405   1_545  A
C1113      C1338   1.383   1_455  A
C1113      H1117   1.084       .  S
C1114      C1337   1.383   1_655  A
C1114      O1118   1.373       .  S
O1116      H1120   0.992   1_556  S
O1118      H1343   0.991       .  S
H1119      O1342   0.991       .  S
C1121      C1122   1.552       .  S
C1121      C1127   1.540       .  S
C1121      C1125   1.567       .  S
C1121      C1138   1.583       .  S
C1122      H1129   1.086       .  S
C1122      C1123   1.377       .  D
C1123      C1124   1.536       .  S
C1123      C1209   1.490       .  S
C1124      C1128   1.557       .  S
C1124      C1126   1.556       .  S
C1124      H1130   1.107       .  S
C1125      H1131   1.083       .  S
C1125      C1126   1.391       .  D
C1126      C1133   1.582       .  S
C1127      H1132   1.086       .  S
C1127      C1128   1.367       .  D
C1128      C1183   1.504       .  S
C1133      C1134   1.549       .  S
C1133      C1139   1.540       .  S
C1133      C1137   1.568       .  S
C1134      H1141   1.086       .  S
C1135      C1136   1.537       .  S
C1135      C1196   1.488       .  S
C1136      C1140   1.558       .  S
C1136      C1138   1.558       .  S
C1136      H1142   1.107       .  S
C1139      H1144   1.086       .  S
C1140      C1309   1.505       .  S
C1145      C1146   1.520       .  S
C1145      C1151   1.550       .  S
C1145      C1149   1.568       .  S
C1145      C1162   1.565       .  S
C1146      H1153   1.087       .  S
C1146      C1147   1.354       .  D
C1147      C1148   1.540       .  S
C1147      C1246   1.456       .  S
C1148      C1152   1.556       .  S
C1148      C1150   1.548       .  S
C1148      H1154   1.107       .  S
C1149      H1155   1.083       .  S
C1149      C1150   1.392       .  D
C1150      C1157   1.567       .  S
C1151      H1156   1.086       .  S
C1151      C1152   1.377       .  D
C1152      C1170   1.513       .  S
C1157      C1158   1.521       .  S
C1157      C1163   1.552       .  S
C1158      H1165   1.087       .  S
C1159      C1160   1.538   1_545  S
C1159      C1259   1.452       .  S
C1160      C1164   1.554   1_565  S
C1160      C1162   1.544       .  S
C1160      H1166   1.107       .  S
C1161      H1167   1.083       .  S
C1161      C1162   1.393   1_545  D
C1163      H1168   1.086       .  S
C1164      C1296   1.513       .  S
In1169     O1171   2.216       .  S
In1169     O1172   2.243       .  S
In1169     O1180   2.269       .  S
In1169     O1174   2.298       .  S
In1169     O1176   2.306       .  S
In1169     O1177   2.247       .  S
In1169     O1178   2.309       .  S
In1169     O1181   2.251       .  S
C1170      O1176   1.263       .  A
C1170      O1178   1.261       .  A
O1171      C1179   1.253       .  A
O1172      C1179   1.264       .  A
C1173      O1180   1.261       .  A
C1173      O1174   1.266       .  A
C1173      C1186   1.494   1_655  S
C1175      C1228   1.464       .  S
C1175      O1177   1.253       .  A
C1175      O1181   1.265       .  A
C1179      C1223   1.453       .  S
In1182     O1184   2.237       .  S
In1182     O1185   2.283       .  S
In1182     O1193   2.293       .  S
In1182     O1187   2.282       .  S
In1182     O1189   2.296       .  S
In1182     O1190   2.237       .  S
In1182     O1191   2.288       .  S
In1182     O1194   2.214       .  S
C1183      O1189   1.266       .  A
C1183      O1191   1.257       .  A
O1184      C1192   1.256       .  A
O1185      C1192   1.264       .  A
C1186      O1193   1.261       .  A
C1186      O1187   1.263       .  A
C1188      C1240   1.452       .  S
C1188      O1190   1.257       .  A
C1188      O1194   1.262       .  A
C1192      C1235   1.478       .  S
In1195     O1197   2.233       .  S
In1195     O1198   2.211       .  S
In1195     O1200   2.199       .  S
In1195     O1202   2.274       .  S
In1195     O1204   2.264       .  S
C1196      O1202   1.260       .  A
C1196      O1204   1.263       .  A
O1197      C1205   1.256       .  A
O1198      C1205   1.264       .  A
C1199      C1238   1.454   1_554  S
C1199      O1206   1.254       .  A
C1201      O1203   1.247       .  A
C1201      O1207   1.264       .  A
C1201      C1218   1.450       .  S
C1205      C1214   1.449       .  S
In1208     O1210   2.214       .  S
In1208     O1213   2.191       .  S
In1208     O1215   2.280       .  S
In1208     O1217   2.262       .  S
In1208     O1220   2.265       .  S
C1209      O1215   1.260       .  A
C1209      O1217   1.263       .  A
O1211      C1218   1.255       .  A
C1212      C1288   1.453       .  S
C1212      O1219   1.256       .  A
C1214      O1216   1.247       .  A
C1221      C1222   1.542   1_545  S
C1221      C1225   1.517   1_545  S
C1221      C1333   1.506       .  S
C1222      H1229   1.086       .  S
C1222      C1223   1.368       .  D
C1223      C1224   1.520       .  S
C1224      C1226   1.539       .  S
C1224      H1230   1.112       .  S
C1225      H1231   1.089       .  S
C1225      C1226   1.336       .  D
C1226      C1262   1.439       .  S
C1227      H1232   1.086       .  S
C1227      C1228   1.371       .  D
C1233      C1234   1.547   1_545  S
C1233      C1237   1.512   1_556  S
C1233      C1336   1.510       .  S
C1234      H1241   1.086       .  S
C1234      C1235   1.370       .  D
C1235      C1236   1.537   1_565  S
C1236      C1238   1.547   1_545  S
C1236      H1242   1.111   1_545  S
C1237      C1238   1.340   1_544  D
C1239      H1244   1.085       .  S
C1239      C1240   1.368       .  D
In1245     O1247   2.171       .  S
In1245     O1248   2.199       .  S
In1245     O1250   2.197       .  S
In1245     O1252   2.200       .  S
In1245     O1253   2.193       .  S
In1245     O1254   2.226       .  S
In1245     O1257   2.212       .  S
C1246      O1252   1.264       .  A
C1246      O1254   1.262       .  A
O1247      C1255   1.266       .  A
O1248      C1255   1.260       .  A
C1249      C1276   1.442   1_554  S
C1249      O1256   1.254       .  A
C1251      O1253   1.253       .  A
C1251      O1257   1.268       .  A
C1251      C1268   1.424       .  S
C1255      C1264   1.425       .  S
In1258     O1260   2.171   1_545  S
In1258     O1263   2.192       .  S
In1258     O1265   2.195       .  S
In1258     O1267   2.218   1_545  S
C1259      O1265   1.263       .  A
C1259      O1267   1.262   1_545  A
O1261      C1268   1.260       .  A
C1262      O1269   1.253       .  A
C1264      O1266   1.253       .  A
C1271      C1272   1.544       .  S
C1271      C1277   1.541       .  S
C1271      C1275   1.516       .  S
C1271      C1324   1.506       .  S
C1272      H1279   1.086       .  S
C1272      C1273   1.366       .  D
C1273      C1274   1.522       .  S
C1273      C1305   1.455       .  S
C1274      C1278   1.530       .  S
C1274      C1276   1.542       .  S
C1274      H1280   1.111       .  S
C1275      C1276   1.337       .  D
C1277      H1282   1.086       .  S
C1277      C1278   1.371       .  D
C1278      C1301   1.463       .  S
C1283      C1284   1.543       .  S
C1283      C1289   1.536       .  S
C1283      C1287   1.512       .  S
C1283      C1321   1.508       .  S
C1284      H1291   1.086       .  S
C1284      C1285   1.368       .  D
C1285      C1286   1.537       .  S
C1285      C1318   1.474       .  S
C1286      C1290   1.532       .  S
C1286      C1288   1.545       .  S
C1286      H1292   1.111       .  S
C1287      H1293   1.089       .  S
C1287      C1288   1.342       .  D
C1289      H1294   1.085       .  S
C1289      C1290   1.368       .  D
C1290      C1314   1.451       .  S
In1295     O1306   2.273       .  S
In1295     O1300   2.295   1_545  S
In1295     O1302   2.308       .  S
In1295     O1303   2.242   1_545  S
In1295     O1304   2.305   1_545  S
In1295     O1307   2.250   1_545  S
C1296      O1302   1.263       .  A
C1296      O1304   1.262   1_545  A
O1297      C1305   1.254       .  A
O1298      C1305   1.262       .  A
C1299      O1306   1.261   1_565  A
C1299      O1300   1.265       .  A
C1299      C1312   1.494       .  S
C1301      O1303   1.254       .  A
C1301      O1307   1.265       .  A
In1308     O1319   2.295       .  S
In1308     O1313   2.282   1_565  S
In1308     O1315   2.293   1_565  S
In1308     O1316   2.233       .  S
In1308     O1317   2.292       .  S
In1308     O1320   2.222       .  S
C1309      O1315   1.265   1_565  A
C1309      O1317   1.257       .  A
O1310      C1318   1.257       .  A
O1311      C1318   1.264       .  A
C1312      O1319   1.262       .  A
C1312      O1313   1.262   1_565  A
C1314      O1316   1.255       .  A
C1314      O1320   1.263       .  A
C1321      C1322   1.405       .  A
C1321      C1326   1.411       .  A
C1323      C1324   1.416       .  A
C1323      O1328   1.371       .  S
C1325      C1326   1.383       .  A
C1325      H1329   1.082       .  S
C1326      O1330   1.374       .  S
O1328      H1332   0.992   1_556  S
O1330      H1331   0.992       .  S
C1333      C1338   1.413   1_545  A
C1334      C1335   1.396   1_655  A
C1334      H1339   1.081       .  S
C1335      O1340   1.370       .  S
C1336      C1337   1.405   1_546  A
C1337      H1341   1.084   1_554  S
C1338      O1342   1.373       .  S
O1340      H1344   0.992       .  S
