geometry optimzed in LAMMPS
_audit_creation_date              2020-11-30 
_audit_creation_method            'lammps2cif' 
_symmetry_space_group_name_H-M    'P1' 
_symmetry_Int_Tables_number       1 
_symmetry_cell_setting            triclinic 
loop_ 
_symmetry_equiv_pos_as_xyz 
  x,y,z 
_cell_length_a                    22.4287048 
_cell_length_b                    22.40949844110402 
_cell_length_c                    85.6611233135762 
_cell_angle_alpha                 90.2724513846229 
_cell_angle_beta                  89.97563368660427 
_cell_angle_gamma                 90.68116742930599 
loop_ 
_atom_site_label 
_atom_site_type_symbol 
_atom_site_fract_x 
_atom_site_fract_y 
_atom_site_fract_z 
_atom_site_charge 
N1          N  0.02311275  0.45002649  0.11224197    -0.36800
N2          N  0.38708111  0.04793370  0.09024336    -0.57400
N3          N  0.47796892  0.07945972  0.06759837    -0.36800
N4          N  0.07274798  0.95176613  0.08993317    -0.57400
C5          C  0.47234135  0.48794526  0.12074048     0.26800
C6          C  0.07216134  0.45171114  0.12181852     0.26800
C7          C  0.43358451  0.05836100  0.05841594     0.26800
C8          C  0.02257687  0.92031958  0.05944639     0.26800
C9          C  0.39431980  0.51889510  0.10142287     0.35400
C10         C  0.35230558  0.06028622  0.07777457     0.35400
C11         C  0.15264164  0.43703418  0.10151766     0.35400
C12         C  0.10660120  0.94504267  0.07689486     0.35400
C13         C  0.49123513  0.46327905  0.13470295    -0.22100
C14         C  0.05202472  0.45733586  0.13708103    -0.22100
C15         C  0.45605630  0.04265717  0.04387394    -0.22100
C16         C  0.99802841  0.89181363  0.04650758    -0.22100
C17         C  0.33805504  0.53877325  0.09727535    -0.23200
C18         C  0.29420833  0.06935036  0.08247175    -0.23100
C19         C  0.20976981  0.44571144  0.09566519    -0.23200
C20         C  0.16608274  0.95453407  0.08039860    -0.23100
C21         C  0.41099790  0.49873541  0.11650930    -0.18500
C22         C  0.13445765  0.44959544  0.11715402    -0.18500
C23         C  0.08408015  0.92793141  0.06206154    -0.18500
C24         C  0.37258016  0.05907857  0.06219778    -0.18500
H25         H  0.46332454  0.44711653  0.14412228     0.14400
H26         H  0.07922976  0.46031346  0.14749788     0.14400
H27         H  0.43236404  0.02583455  0.03377281     0.14400
H28         H  0.02034343  0.86496523  0.03784291     0.14400
H29         H  0.30052877  0.54720389  0.10484183     0.12700
H30         H  0.25626466  0.07911557  0.07514814     0.12700
H31         H  0.24849986  0.46023373  0.10212771     0.12700
H32         H  0.20373701  0.95105958  0.07254738     0.12700
H33         H  0.02419252  0.45081509  0.10017105     0.26000
H34         H  0.47310087  0.10119072  0.07829471     0.26000
O35         O  0.25781806  0.06179395  0.99354452    -0.73100
O36         O  0.15622486  0.00993496  0.95752146    -0.74100
O37         O  0.15040376  0.00380359  0.99144395    -0.62700
O38         O  0.26337983  0.06941811  0.95966205    -0.71200
O39         O  0.34120655  0.45968779  0.95781514    -0.70700
O40         O  0.23289340  0.39343372  0.99121512    -0.62000
O41         O  0.23701849  0.39613397  0.95648762    -0.74500
O42         O  0.33794938  0.45609129  0.99188532    -0.73300
Cu43       Cu  0.20543589  0.03884181  0.97552780     1.04600
Cu44       Cu  0.28875852  0.42343800  0.97432621     1.04300
C45         C  0.32295822  0.50333939  0.99920471     0.93000
C46         C  0.20400714  0.43398394  0.94964892     0.92200
C47         C  0.19664336  0.42926368  0.99786683     0.84300
C48         C  0.33175407  0.51109060  0.95197055     0.90600
O49         O  0.34568254  0.44020971  0.16668430    -0.73100
O50         O  0.21547676  0.41573372  0.13375590    -0.74100
O51         O  0.34737235  0.43742941  0.13327500    -0.62700
O52         O  0.22123707  0.41989586  0.16755076    -0.71200
O53         O  0.16069773  0.03198273  0.16771802    -0.70700
O54         O  0.28773691  0.06105042  0.13485578    -0.62000
O55         O  0.15680791  0.03812025  0.13461862    -0.74500
O56         O  0.28385965  0.05436785  0.16813796    -0.73300
Cu57       Cu  0.28280899  0.42485584  0.15015686     1.04600
Cu58       Cu  0.22177281  0.04958410  0.15120039     1.04300
C59         C  0.35778058  0.49272873  0.17181688     0.93000
C60         C  0.18449365  0.45989471  0.12895256     0.92200
C61         C  0.36105611  0.48960680  0.12818783     0.86100
C62         C  0.19730055  0.46680928  0.17323517     0.90600
N63         N  0.01654091  0.41948013  0.88282156    -0.36800
N64         N  0.10764345  0.44157545  0.85942523    -0.57400
N65         N  0.01420294  0.45491726  0.83603950    -0.36800
N66         N  0.42425743  0.53846857  0.86099989    -0.57400
C67         C  0.06437956  0.43268063  0.89179992     0.26800
C68         C  0.47315050  0.58402039  0.89012232     0.26800
C69         C  0.06336191  0.47344823  0.82783515     0.26800
C70         C  0.46443946  0.50930655  0.82843856     0.26800
C71         C  0.14187524  0.42327828  0.87146729     0.35400
C72         C  0.14134824  0.43766656  0.84639536     0.35400
C73         C  0.39358719  0.53650020  0.87466991     0.35400
C74         C  0.38788219  0.51585222  0.84981723     0.35400
C75         C  0.04591112  0.44635715  0.90686589    -0.22100
C76         C  0.49300107  0.62000813  0.90230960    -0.22100
C77         C  0.04376775  0.50258703  0.81456146    -0.22100
C78         C  0.48244421  0.51105773  0.81292885    -0.22100
C79         C  0.19766153  0.40746951  0.86618306    -0.23200
C80         C  0.19707251  0.41567174  0.85026058    -0.23100
C81         C  0.33705106  0.51322159  0.87217216    -0.23200
C82         C  0.33297317  0.50184131  0.85634704    -0.23100
C83         C  0.12436037  0.42638936  0.88724910    -0.18500
C84         C  0.41557932  0.55933550  0.88904634    -0.18500
C85         C  0.40315862  0.50909411  0.83378464    -0.18500
C86         C  0.12483418  0.46088476  0.83162247    -0.18500
H87         H  0.07272257  0.45701859  0.91698325     0.14400
H88         H  0.46608565  0.64108511  0.91120819     0.14400
H89         H  0.07123771  0.52130593  0.80537647     0.14400
H90         H  0.45387721  0.51341104  0.80277638     0.14400
H91         H  0.23489577  0.39229644  0.87308429     0.12700
H92         H  0.23408167  0.40721377  0.84251584     0.12700
H93         H  0.30194372  0.50730479  0.88071465     0.12700
H94         H  0.29420210  0.48523859  0.85027761     0.12700
H95         H  0.01733401  0.40041479  0.87172254     0.26000
H96         H  0.01487957  0.42637901  0.84554476     0.26000
O97         O  0.33816599  0.45203173  0.81632951    -0.73100
O98         O  0.21391886  0.44018662  0.78159909    -0.74100
O99         O  0.33763825  0.46120436  0.78318392    -0.62700
O100        O  0.20658907  0.43062506  0.81490551    -0.71200
O101        O  0.14151738  0.05091038  0.81751906    -0.70700
O102        O  0.27017394  0.07282861  0.78459706    -0.62000
O103        O  0.14621719  0.05088126  0.78407337    -0.74500
O104        O  0.27331847  0.07230261  0.81821931    -0.73300
Cu105      Cu  0.27446724  0.44275082  0.79912419     1.04600
Cu106      Cu  0.20735004  0.06498448  0.80130236     1.04300
C107        C  0.35207574  0.50300302  0.82223726     0.93000
C108        C  0.18853260  0.48702170  0.77649807     0.92200
C109        C  0.34947572  0.51431582  0.77862959     0.84300
C110        C  0.17528589  0.47370331  0.82026767     0.90600
O111        O  0.44713611  0.36369306  0.63268149    -0.73100
O112        O  0.43260014  0.23956963  0.66748782    -0.74100
O113        O  0.45095561  0.36403143  0.66592361    -0.62700
O114        O  0.42724912  0.23185572  0.63426910    -0.71200
O115        O  0.02262427  0.15629034  0.63142131    -0.70700
O116        O  0.04950989  0.28592845  0.66498365    -0.62000
O117        O  0.03156495  0.16088728  0.66477934    -0.74500
O118        O  0.04212431  0.28886081  0.63130657    -0.73300
Cu119      Cu  0.43607315  0.30021773  0.64993055     1.04600
Cu120      Cu  0.03980742  0.22262559  0.64786383     1.04300
C121        C  0.49879222  0.37740988  0.62721309     0.93000
C122        C  0.47983838  0.21582644  0.67296073     0.92200
C123        C  0.50322184  0.37743484  0.67086029     0.84300
C124        C  0.47149708  0.20076766  0.62960323     0.90600
N125        N  0.45753136  0.03834332  0.61467675    -0.36800
N126        N  0.44923014  0.12994493  0.59064053    -0.57400
N127        N  0.44526246  0.03776504  0.56727496    -0.36800
N128        N  0.54738652  0.44657255  0.58953775    -0.57400
C129        C  0.47384529  0.08844453  0.62285110     0.26800
C130        C  0.50917926  0.48928935  0.62127398     0.26800
C131        C  0.45764388  0.08643482  0.55861764     0.26800
C132        C  0.60632581  0.49177846  0.56190810     0.26800
C133        C  0.44036893  0.16396670  0.60342627     0.35400
C134        C  0.43244425  0.16268311  0.57820852     0.35400
C135        C  0.51773553  0.41233928  0.59996790     0.35400
C136        C  0.54837222  0.41574746  0.57584350     0.35400
C137        C  0.50066137  0.07055801  0.63663849    -0.22100
C138        C  0.50875542  0.50707257  0.63683059    -0.22100
C139        C  0.48106412  0.06939539  0.54429717    -0.22100
C140        C  0.64775386  0.50973638  0.55083784    -0.22100
C141        C  0.41697674  0.21851965  0.59901761    -0.23200
C142        C  0.41244508  0.21783023  0.58299510    -0.23100
C143        C  0.50201069  0.35844926  0.59302098    -0.23200
C144        C  0.51993829  0.36121687  0.57761263    -0.23100
C145        C  0.46109759  0.14920100  0.61852454    -0.18500
C146        C  0.50713606  0.42814479  0.61580584    -0.18500
C147        C  0.57762531  0.43591113  0.56213743    -0.18500
C148        C  0.44205598  0.14509695  0.56264815    -0.18500
H149        H  0.51736846  0.09920762  0.64589666     0.14400
H150        H  0.50796457  0.47831375  0.64694082     0.14400
H151        H  0.49382278  0.09717920  0.53455728     0.14400
H152        H  0.66982195  0.48205304  0.54227448     0.14400
H153        H  0.40542666  0.25566861  0.60646527     0.12700
H154        H  0.39783674  0.25415949  0.57570318     0.12700
H155        H  0.47937990  0.32150806  0.59849648     0.12700
H156        H  0.51398551  0.32684505  0.56884608     0.12700
H157        H  0.43091076  0.03765836  0.60475171     0.26000
H158        H  0.41997068  0.03688956  0.57746404     0.26000
O159        O  0.05700643  0.24255338  0.45747569    -0.73100
O160        O  0.98708025  0.15092284  0.49322785    -0.74100
O161        O  0.99221520  0.13858226  0.45925687    -0.62700
O162        O  0.05244120  0.25456161  0.49158141    -0.71200
O163        O  0.48540617  0.36003724  0.49206300    -0.70700
O164        O  0.42511791  0.24608861  0.45861563    -0.62000
O165        O  0.42091256  0.25569361  0.49308270    -0.74500
O166        O  0.48773672  0.35163147  0.45788062    -0.73300
Cu167      Cu  0.02479995  0.19499167  0.47545458     1.04600
Cu168      Cu  0.45190539  0.30502958  0.47537203     1.04300
C169        C  0.53577966  0.33525009  0.45122360     0.93000
C170        C  0.45740552  0.22355604  0.50064615     0.92200
C171        C  0.46162634  0.20777140  0.45310590     0.84300
C172        C  0.53595996  0.35151627  0.49856040     0.90600
C173        C  0.51620419  0.54247989  0.72522099    -0.02700
N174        N  0.49797718  0.02314818  0.33834792    -0.36800
N175        N  0.55037586  0.43114534  0.36160577    -0.57400
N176        N  0.43794222  0.02263118  0.38284854    -0.36800
N177        N  0.46094146  0.11572251  0.36134543    -0.57400
C178        C  0.52694828  0.47319709  0.32914711     0.26800
C179        C  0.49631763  0.07285676  0.32915452     0.26800
C180        C  0.54670353  0.47527784  0.39382510     0.26800
C181        C  0.41168070  0.06892572  0.39007377     0.26800
C182        C  0.55648687  0.39639288  0.34880365     0.35400
C183        C  0.56711902  0.39793301  0.37397539     0.35400
C184        C  0.48232997  0.15187903  0.35003492     0.35400
C185        C  0.45648547  0.14914340  0.37458363     0.35400
C186        C  0.50377139  0.49157398  0.31495108    -0.22100
C187        C  0.49845142  0.05419186  0.31368049    -0.22100
C188        C  0.52449718  0.49219972  0.40830550    -0.22100
C189        C  0.37350603  0.04822934  0.40161557    -0.22100
C190        C  0.57781122  0.34092843  0.35315455    -0.23200
C191        C  0.58389646  0.34174376  0.36912390    -0.23100
C192        C  0.48874978  0.20930495  0.35601290    -0.23200
C193        C  0.47396140  0.20729132  0.37165472    -0.23100
C194        C  0.53710949  0.41209596  0.33361549    -0.18500
C195        C  0.49417656  0.13453056  0.33430444    -0.18500
C196        C  0.43227691  0.12792042  0.38883406    -0.18500
C197        C  0.56209515  0.41652300  0.38963772    -0.18500
H198        H  0.48841963  0.46324622  0.30546953     0.14400
H199        H  0.49782790  0.08237546  0.30346594     0.14400
H200        H  0.51412331  0.46466272  0.41826234     0.14400
H201        H  0.34821142  0.07406234  0.40992477     0.14400
H202        H  0.58765510  0.30332966  0.34568398     0.12700
H203        H  0.59825664  0.30509710  0.37634246     0.12700
H204        H  0.50165621  0.24870681  0.34964597     0.12700
H205        H  0.47338360  0.24464715  0.37971348     0.12700
H206        H  0.50196823  0.02369652  0.35040612     0.26000
H207        H  0.47638896  0.02529338  0.37606069     0.26000
O208        O  0.47288710  0.33964198  0.28448724    -0.73100
O209        O  0.45649304  0.21452628  0.31833597    -0.74100
O210        O  0.47520377  0.34609666  0.31766262    -0.62700
O211        O  0.45570665  0.21452942  0.28483145    -0.71200
O212        O  0.05925241  0.14293035  0.28386229    -0.70700
O213        O  0.08142593  0.27216437  0.31654297    -0.62000
O214        O  0.06086695  0.14003129  0.31718604    -0.74500
O215        O  0.07698869  0.26735883  0.28303561    -0.73300
Cu216      Cu  0.46168850  0.27907382  0.30149789     1.04600
Cu217      Cu  0.07309936  0.20530590  0.30033083     1.04300
C218        C  0.52399312  0.35271699  0.27872285     0.93000
C219        C  0.50196123  0.18470478  0.32268736     0.92200
C220        C  0.52773245  0.36134184  0.32220063     0.84300
C221        C  0.50209606  0.19049608  0.27889119     0.90600
C222        C  0.52679795  0.51979780  0.22503815    -0.02700
C223        C  0.52769741  0.39500354  0.26525275    -0.06300
C224        C  0.47697894  0.42812355  0.26164903    -0.17500
C225        C  0.47438271  0.46543581  0.24858080     0.10900
C226        C  0.52433717  0.47094193  0.23821858    -0.06300
C227        C  0.07446712  0.40166353  0.24584863    -0.17500
C228        C  0.07705746  0.36821216  0.25959422     0.10900
S229        S  0.40398390  0.50122419  0.24504635    -0.32500
S230        S  0.13771089  0.38402134  0.27282814    -0.32500
H231        H  0.10238292  0.38136669  0.28639783     0.28900
H232        H  0.38307402  0.50000003  0.26053122     0.28900
H233        H  0.43793746  0.42392221  0.26901043     0.19500
H234        H  0.11004002  0.43383134  0.24392864     0.19500
C235        C  0.48352698  0.07504006  0.23773160    -0.06300
C236        C  0.03507241  0.01279522  0.24710130    -0.17500
C237        C  0.04474383  0.04843796  0.26027782     0.10900
C238        C  0.49645405  0.14891090  0.26522585    -0.06300
C239        C  0.44392966  0.14913999  0.25631212    -0.17500
C240        C  0.43582800  0.11282141  0.24291590     0.10900
S241        S  0.11664446  0.04223032  0.26950507    -0.32500
S242        S  0.36355207  0.11768639  0.23358105    -0.32500
H243        H  0.33674164  0.15934864  0.24360836     0.28900
H244        H  0.09290714  0.03597343  0.28461117     0.28900
H245        H  0.07168819  0.98529326  0.24331153     0.19500
H246        H  0.40841779  0.17820507  0.26001140     0.19500
C247        C  0.54520064  0.34882800  0.43448902    -0.06300
C248        C  0.09694215  0.29943606  0.42890415    -0.17500
C249        C  0.11211218  0.31213213  0.41335684     0.10900
C250        C  0.56372453  0.37278839  0.40255724    -0.06300
C251        C  0.50796343  0.35285217  0.40776904    -0.17500
C252        C  0.49726194  0.34520359  0.42366821     0.10900
S253        S  0.18879577  0.33039111  0.40904605    -0.32500
S254        S  0.42020876  0.33896035  0.42931827    -0.32500
H255        H  0.42083899  0.39509959  0.43675546     0.28900
H256        H  0.18443324  0.31983475  0.39289038     0.28900
H257        H  0.13183891  0.29822195  0.43763670     0.19500
H258        H  0.47024594  0.35411276  0.39985905     0.19500
C259        C  0.45356087  0.18399924  0.43673860    -0.06300
C260        C  0.39980833  0.19526306  0.42875668    -0.17500
C261        C  0.39371832  0.18510388  0.41258751     0.10900
C262        C  0.44119288  0.16008988  0.40403306    -0.06300
C263        C  0.97872741  0.07507384  0.41231592    -0.17500
C264        C  0.98054894  0.08573560  0.42848178     0.10900
S265        S  0.32366689  0.20330751  0.40357334    -0.32500
S266        S  0.03852869  0.05002859  0.43964220    -0.32500
H267        H  0.05894214  0.01153983  0.42783345     0.28900
H268        H  0.34536935  0.20567536  0.38818871     0.28900
H269        H  0.36259218  0.21422831  0.43504509     0.19500
H270        H  0.01233523  0.04724307  0.40698852     0.19500
C271        C  0.54978066  0.37852438  0.51428364    -0.06300
C272        C  0.07490802  0.29182055  0.52233070    -0.17500
C273        C  0.08265440  0.30468507  0.53828642     0.10900
C274        C  0.56581913  0.40799034  0.54652825    -0.06300
C275        C  0.51869824  0.43172241  0.53785404    -0.17500
C276        C  0.51083334  0.41859166  0.52196752     0.10900
S277        S  0.14495613  0.27136826  0.54813624    -0.32500
S278        S  0.45116546  0.45653883  0.51224958    -0.32500
H279        H  0.48560827  0.47027795  0.49897220     0.28900
H280        H  0.12181288  0.27622559  0.56332487     0.28900
H281        H  0.10471722  0.26009127  0.51695112     0.19500
H282        H  0.48918483  0.46343273  0.54339586     0.19500
C283        C  0.43894858  0.18796782  0.54958401    -0.06300
C284        C  0.38799165  0.18451304  0.54003133    -0.17500
C285        C  0.39165326  0.19576313  0.52395225     0.10900
C286        C  0.44732908  0.21154313  0.51737826    -0.06300
C287        C  0.97270861  0.16074697  0.52590860    -0.17500
C288        C  0.96767234  0.14854962  0.54180807     0.10900
S289        S  0.32553311  0.18351165  0.51238789    -0.32500
S290        S  0.03525932  0.15178319  0.55319095    -0.32500
H291        H  0.00763810  0.16229750  0.56759954     0.28900
H292        H  0.35548446  0.16056228  0.49928645     0.28900
H293        H  0.34690868  0.16613954  0.54475867     0.19500
H294        H  0.01562101  0.17547130  0.52145734     0.19500
C295        C  0.50968742  0.42026830  0.68422022    -0.06300
C296        C  0.45912626  0.45179058  0.68890461    -0.17500
C297        C  0.45905242  0.48894214  0.70210468     0.10900
C298        C  0.51139351  0.49506294  0.71163162    -0.06300
C299        C  0.06242932  0.39673095  0.70772778    -0.17500
C300        C  0.06207918  0.35742159  0.69479846     0.10900
S301        S  0.38882723  0.52322788  0.70689389    -0.32500
S302        S  0.13030718  0.31892608  0.69068336    -0.32500
H303        H  0.10241034  0.26233921  0.69022147     0.28900
H304        H  0.32921695  0.00821715  0.68683357     0.28900
H305        H  0.41824846  0.44639969  0.68231213     0.19500
H306        H  0.10460234  0.40420556  0.71354167     0.19500
C307        C  0.47624614  0.17538454  0.68686397    -0.06300
C308        C  0.42558320  0.17732509  0.69648285    -0.17500
C309        C  0.41818593  0.14070218  0.70971232     0.10900
C310        C  0.46375928  0.09840936  0.71369046    -0.06300
C311        C  0.01584276  0.03192858  0.70220933    -0.17500
C312        C  0.02187644  0.06624138  0.68864334     0.10900
S313        S  0.35104157  0.15801630  0.72051310    -0.32500
S314        S  0.08568049  0.05407623  0.67612730    -0.32500
H315        H  0.11402669  0.01087124  0.68527887     0.28900
H316        H  0.32822313  0.10079137  0.72301287     0.28900
H317        H  0.39070807  0.20857942  0.69367061     0.19500
H318        H  0.05116625  0.00134266  0.70492608     0.19500
C319        C  0.39122841  0.52316065  0.76521444    -0.06300
C320        C  0.39670294  0.47638281  0.75445525    -0.17500
C321        C  0.43413726  0.47988780  0.74134434     0.10900
C322        C  0.46602581  0.53465836  0.73798095    -0.06300
C323        C  0.40136206  0.08798353  0.74730583    -0.17500
C324        C  0.36558335  0.08648143  0.76074739     0.10900
S325        S  0.44380931  0.40945006  0.73114417    -0.32500
S326        S  0.36380623  0.15156909  0.77329838    -0.32500
H327        H  0.39768341  0.18996256  0.76373663     0.28900
H328        H  0.38827913  0.38353794  0.73496942     0.28900
H329        H  0.37241387  0.43523027  0.75663416     0.19500
H330        H  0.42719318  0.12793579  0.74511986     0.19500
C331        C  0.14953761  0.48390126  0.76227086    -0.06300
C332        C  0.09164999  0.04095719  0.75389443    -0.17500
C333        C  0.05477000  0.04010441  0.74051884     0.10900
C334        C  0.07565724  0.48331260  0.73457692    -0.06300
C335        C  0.08692764  0.43100336  0.74332482    -0.17500
C336        C  0.12029449  0.43123428  0.75718628     0.10900
S337        S  0.04968127  0.11089686  0.73040816    -0.32500
S338        S  0.11770478  0.36415026  0.76869272    -0.32500
H339        H  0.10819302  0.39445589  0.78290379     0.28900
H340        H  0.09707752  0.14163048  0.73772821     0.28900
H341        H  0.11718965  0.08086128  0.75666404     0.19500
H342        H  0.06414512  0.38996345  0.74025534     0.19500
C343        C  0.39985324  0.50062112  0.18527356    -0.06300
C344        C  0.40454875  0.45430052  0.19607895    -0.17500
C345        C  0.44230970  0.45784383  0.20919764     0.10900
C346        C  0.47480201  0.51248531  0.21262652    -0.06300
C347        C  0.41695808  0.06683404  0.20481700    -0.17500
C348        C  0.37948420  0.06646963  0.19172499     0.10900
S349        S  0.45191759  0.38747392  0.21924845    -0.32500
S350        S  0.37236244  0.13444895  0.18059390    -0.32500
H351        H  0.41672447  0.16815118  0.18833976     0.28900
H352        H  0.39716662  0.36067670  0.21503957     0.28900
H353        H  0.37962094  0.41347514  0.19386268     0.19500
H354        H  0.43969230  0.10790712  0.20771778     0.19500
C355        C  0.15751380  0.46418217  0.18725199    -0.06300
C356        C  0.10206495  0.02206700  0.19640160    -0.17500
C357        C  0.06353954  0.02177896  0.20933901     0.10900
C358        C  0.07522431  0.46371629  0.21296597    -0.06300
C359        C  0.11952173  0.41942782  0.21130216    -0.17500
C360        C  0.16022869  0.41919952  0.19874374     0.10900
S361        S  0.05513634  0.09364821  0.21896667    -0.32500
S362        S  0.21533655  0.36105425  0.19775088    -0.32500
H363        H  0.20486289  0.33684298  0.21263972     0.28900
H364        H  0.08100454  0.13035395  0.20747434     0.28900
H365        H  0.12619504  0.06272667  0.19362114     0.19500
H366        H  0.11981130  0.38152235  0.21897622     0.19500
C367        C  0.35758726  0.52682682  0.93636458    -0.06300
C368        C  0.29466154  0.10224502  0.92943236    -0.17500
C369        C  0.30359880  0.11517805  0.91359111     0.10900
C370        C  0.38668067  0.54480563  0.90429840    -0.06300
C371        C  0.41307181  0.49911381  0.91298314    -0.17500
C372        C  0.40056278  0.49083469  0.92883291     0.10900
S373        S  0.26862962  0.18088797  0.90586243    -0.32500
S374        S  0.44372681  0.43544803  0.93880547    -0.32500
H375        H  0.45224239  0.47067660  0.95229372     0.28900
H376        H  0.26921269  0.16271043  0.89014164     0.28900
H377        H  0.26466085  0.13042213  0.93598557     0.19500
H378        H  0.44698983  0.47186549  0.90754420     0.19500
C379        C  0.19111742  0.42783169  0.93268517    -0.06300
C380        C  0.15974024  0.00302873  0.92437826    -0.17500
C381        C  0.14287873  0.00361541  0.90870676     0.10900
C382        C  0.16850103  0.42552443  0.90017804    -0.06300
C383        C  0.17320725  0.37209640  0.90860656    -0.17500
C384        C  0.18406440  0.37262689  0.92476520     0.10900
S385        S  0.15413238  0.07231514  0.89817481    -0.32500
S386        S  0.18275242  0.30196849  0.93468316    -0.32500
H387        H  0.15206038  0.32325947  0.94786473     0.28900
H388        H  0.15396175  0.04699015  0.88317679     0.28900
H389        H  0.18173976  0.04228549  0.92918091     0.19500
H390        H  0.16137783  0.33024781  0.90294781     0.19500
C391        C  0.36820266  0.52851254  0.04773291    -0.06300
C392        C  0.35427256  0.47137894  0.04203830    -0.17500
C393        C  0.34337847  0.46165001  0.02612334     0.10900
C394        C  0.33992957  0.51118785  0.01585232    -0.06300
C395        C  0.31088299  0.09061395  0.02269712    -0.17500
C396        C  0.32273527  0.10128462  0.03854476     0.10900
S397        S  0.33961810  0.38523041  0.01923066    -0.32500
S398        S  0.33310104  0.17761444  0.04477104    -0.32500
H399        H  0.32207078  0.16714624  0.06067635     0.28900
H400        H  0.33687593  0.35745712  0.03390963     0.28900
H401        H  0.36114576  0.43355245  0.04962906     0.19500
H402        H  0.30485078  0.12840560  0.01503666     0.19500
C403        C  0.16162539  0.40047880  0.04736443    -0.06300
C404        C  0.12479083  0.99008922  0.04105581    -0.17500
C405        C  0.13794122  0.99841861  0.02522254     0.10900
C406        C  0.17843181  0.41885611  0.01460472    -0.06300
C407        C  0.19434192  0.36479722  0.02184002    -0.17500
C408        C  0.18811565  0.35609115  0.03802922     0.10900
S409        S  0.14414139  0.07463442  0.01845078    -0.32500
S410        S  0.21284718  0.28662187  0.04614101    -0.32500
H411        H  0.21906772  0.30794532  0.06152970     0.28900
H412        H  0.15324597  0.10135798  0.03317562     0.28900
H413        H  0.11315450  0.02824228  0.04820644     0.19500
H414        H  0.21369246  0.32937019  0.01492451     0.19500
N415        N  0.98331104  0.99450676  0.11278810    -0.36800
N416        N  0.42883813  0.51524637  0.08851498    -0.57400
N417        N  0.52122491  0.53207149  0.06501532    -0.36800
N418        N  0.11743793  0.41422623  0.09009149    -0.57400
C419        C  0.43118463  0.02246895  0.12217261     0.26800
C420        C  0.03159164  0.98601531  0.12220650     0.26800
C421        C  0.47262645  0.52328408  0.05593797     0.26800
C422        C  0.07402664  0.36096697  0.06110394     0.26800
C423        C  0.35152666  0.04913528  0.10297045     0.35400
C424        C  0.39451074  0.53183072  0.07630521     0.35400
C425        C  0.11023962  0.96719780  0.10166804     0.35400
C426        C  0.15102473  0.41144383  0.07689202     0.35400
C427        C  0.45204475  0.99420110  0.13543840    -0.22100
C428        C  0.01167239  0.98530842  0.13756264    -0.22100
C429        C  0.49012487  0.50899666  0.04084155    -0.22100
C430        C  0.05650957  0.32149990  0.04939230    -0.22100
C431        C  0.29384267  0.06327778  0.09847584    -0.23200
C432        C  0.33791828  0.54585635  0.08135193    -0.23100
C433        C  0.16848958  0.96738847  0.09613516    -0.23200
C434        C  0.20836937  0.43130983  0.07997484    -0.23100
C435        C  0.36910134  0.03048011  0.11811261    -0.18500
C436        C  0.09309219  0.97995311  0.11734200    -0.18500
C437        C  0.13116126  0.38665515  0.06250107    -0.18500
C438        C  0.41278326  0.53057904  0.06056204    -0.18500
H439        H  0.42539222  0.97313770  0.14444105     0.14400
H440        H  0.03868041  0.97991866  0.14792013     0.14400
H441        H  0.46272716  0.50069700  0.03068015     0.14400
H442        H  0.08430490  0.29851165  0.04107168     0.14400
H443        H  0.25509793  0.06777246  0.10587793     0.12700
H444        H  0.30062366  0.55991528  0.07430412     0.12700
H445        H  0.20868079  0.97519769  0.10279380     0.12700
H446        H  0.24574958  0.43248932  0.07197555     0.12700
H447        H  0.98564076  0.00232134  0.10084599     0.26000
H448        H  0.52163089  0.54970008  0.07624173     0.26000
O449        O  0.28754283  0.54039865  0.99289367    -0.73100
O450        O  0.18978250  0.48247612  0.95658411    -0.74100
O451        O  0.18284443  0.47763655  0.99096786    -0.62700
O452        O  0.29453113  0.54595949  0.95856499    -0.71200
O453        O  0.30710687  0.98181032  0.95772309    -0.70700
O454        O  0.19755003  0.91782765  0.99170127    -0.62000
O455        O  0.19923779  0.92127503  0.95690640    -0.74500
O456        O  0.30557994  0.97601235  0.99241257    -0.73300
Cu457      Cu  0.23681717  0.51437598  0.97473453     1.04600
Cu458      Cu  0.25402851  0.94605777  0.97461754     1.04300
C459        C  0.29226885  0.02375676  0.99981136     0.93000
C460        C  0.16598308  0.96034452  0.95060256     0.92200
C461        C  0.16327417  0.95547056  0.99841019     0.84300
C462        C  0.29854283  0.03442148  0.95243054     0.90600
O463        O  0.30005148  0.95731675  0.16702431    -0.73100
O464        O  0.17417763  0.94124297  0.13297220    -0.74100
O465        O  0.30575269  0.96427342  0.13367688    -0.62700
O466        O  0.17602136  0.93478746  0.16654998    -0.71200
O467        O  0.20769132  0.51742813  0.16691576    -0.70700
O468        O  0.33038950  0.53445662  0.13266227    -0.62000
O469        O  0.19890013  0.51280330  0.13350740    -0.74500
O470        O  0.33152619  0.53769379  0.16591205    -0.73300
Cu471      Cu  0.23952643  0.94599791  0.14982424     1.04600
Cu472      Cu  0.26653640  0.52874204  0.14955850     1.04300
C473        C  0.31015947  0.00830790  0.17334363     0.93000
C474        C  0.14311810  0.98659111  0.12907025     0.92200
C475        C  0.31927221  0.01786461  0.12966074     0.86100
C476        C  0.15009156  0.97941021  0.17284918     0.90600
N477        N  0.96358299  0.98445258  0.88446004    -0.36800
N478        N  0.05478828  0.97607685  0.86117889    -0.57400
N479        N  0.96408813  0.99463788  0.83707507    -0.36800
N480        N  0.37304613  0.07414729  0.86101736    -0.57400
C481        C  0.01337347  0.98886724  0.89323174     0.26800
C482        C  0.41573827  0.13199258  0.88929088     0.26800
C483        C  0.01523546  0.00679359  0.82893785     0.26800
C484        C  0.41695550  0.04190639  0.82913476     0.26800
C485        C  0.08553437  0.95482826  0.87353640     0.35400
C486        C  0.08841187  0.96680013  0.84833445     0.35400
C487        C  0.34483210  0.06822904  0.87494316     0.35400
C488        C  0.34024786  0.04363078  0.85033348     0.35400
C489        C  0.00030250  0.01552626  0.90746258    -0.22100
C490        C  0.42868171  0.17490572  0.90053913    -0.22100
C491        C  0.99914823  0.03360580  0.81497862    -0.22100
C492        C  0.43565844  0.04012305  0.81369902    -0.22100
C493        C  0.13900477  0.93130959  0.86859450    -0.23200
C494        C  0.14095304  0.93895895  0.85263650    -0.23100
C495        C  0.29340817  0.03427556  0.87310862    -0.23200
C496        C  0.28969027  0.02005124  0.85741036    -0.23100
C497        C  0.06885232  0.96438264  0.88924846    -0.18500
C498        C  0.36387171  0.09656984  0.88893746    -0.18500
C499        C  0.35547808  0.03733468  0.83431468    -0.18500
C500        C  0.07507533  0.98987596  0.83330913    -0.18500
H501        H  0.02981131  0.02400222  0.91721542     0.14400
H502        H  0.39864162  0.19389008  0.90903169     0.14400
H503        H  0.02873279  0.04752606  0.80566676     0.14400
H504        H  0.40756303  0.03658445  0.80345751     0.14400
H505        H  0.17387176  0.91292346  0.87578843     0.12700
H506        H  0.17754064  0.92615719  0.84518662     0.12700
H507        H  0.26163419  0.02202557  0.88206179     0.12700
H508        H  0.25499636  0.99372277  0.85189981     0.12700
H509        H  0.95876791  0.95902540  0.87433008     0.26000
H510        H  0.96134525  0.96906712  0.84713505     0.26000
O511        O  0.28995351  0.97526138  0.81784556    -0.73100
O512        O  0.16100956  0.95348703  0.78404957    -0.74100
O513        O  0.28515599  0.97544169  0.78427393    -0.62700
O514        O  0.15763824  0.95371967  0.81758721    -0.71200
O515        O  0.18967731  0.52746959  0.81664479    -0.70700
O516        O  0.32308395  0.55846918  0.78500688    -0.62000
O517        O  0.19853901  0.53730292  0.78324805    -0.74500
O518        O  0.32148613  0.54886015  0.81846703    -0.73300
Cu519      Cu  0.22399134  0.96115429  0.80113275     1.04600
Cu520      Cu  0.25761278  0.54635451  0.80108632     1.04300
C521        C  0.30423243  0.02770515  0.82279663     0.93000
C522        C  0.13525892  0.99904198  0.77827503     0.92200
C523        C  0.29558094  0.02736042  0.77865261     0.84300
C524        C  0.12683987  0.99849571  0.82215309     0.90600
O525        O  0.42984422  0.84486714  0.63444683    -0.73100
O526        O  0.45518717  0.71927410  0.66760484    -0.74100
O527        O  0.43615418  0.84244964  0.66773060    -0.62700
O528        O  0.45074637  0.71343656  0.63408889    -0.71200
O529        O  0.05210345  0.67616157  0.63248147    -0.70700
O530        O  0.03205193  0.80101742  0.66700288    -0.62000
O531        O  0.05251289  0.67729159  0.66603732    -0.74500
O532        O  0.02950511  0.80690368  0.63321217    -0.73300
Cu533      Cu  0.43965257  0.77936955  0.65079666     1.04600
Cu534      Cu  0.04483734  0.74107103  0.64948692     1.04300
C535        C  0.47371216  0.87693112  0.62956337     0.93000
C536        C  0.50746696  0.71012759  0.67296708     0.92200
C537        C  0.48299615  0.86833951  0.67316396     0.84300
C538        C  0.50237892  0.70072600  0.62862228     0.90600
N539        N  0.50955080  0.53948016  0.61226722    -0.36800
N540        N  0.55185670  0.63295766  0.59082314    -0.57400
N541        N  0.58482203  0.53973705  0.56944779    -0.36800
N542        N  0.45264508  0.94602671  0.59048290    -0.57400
C543        C  0.51053828  0.58862436  0.62182408     0.26800
C544        C  0.47455156  0.98909813  0.62281783     0.26800
C545        C  0.60965302  0.58832583  0.56285972     0.26800
C546        C  0.46027790  0.99004215  0.55853682     0.26800
C547        C  0.52194552  0.66663693  0.60126237     0.35400
C548        C  0.55336628  0.66392010  0.57725822     0.35400
C549        C  0.44291869  0.91209934  0.60321570     0.35400
C550        C  0.43707929  0.91251726  0.57791585     0.35400
C551        C  0.50957873  0.56914981  0.63717173    -0.22100
C552        C  0.50106942  0.00839128  0.63662292    -0.22100
C553        C  0.65000843  0.57099695  0.55146611    -0.22100
C554        C  0.48282613  0.00868175  0.54425866    -0.22100
C555        C  0.50651458  0.72020880  0.59446252    -0.23200
C556        C  0.52495858  0.71788617  0.57910159    -0.23100
C557        C  0.41990469  0.85690950  0.59865288    -0.23200
C558        C  0.41686468  0.85696572  0.58257762    -0.23100
C559        C  0.51044395  0.65027171  0.61696054    -0.18500
C560        C  0.46275881  0.92774518  0.61842272    -0.18500
C561        C  0.44745876  0.93035852  0.56239809    -0.18500
C562        C  0.58271513  0.64440026  0.56355988    -0.18500
H563        H  0.50961490  0.59677288  0.64757306     0.14400
H564        H  0.51817241  0.98065496  0.64586733     0.14400
H565        H  0.67393349  0.59946938  0.54338697     0.14400
H566        H  0.49708101  0.98173499  0.53448523     0.14400
H567        H  0.48374122  0.75656161  0.60000941     0.12700
H568        H  0.51939344  0.75222626  0.57041810     0.12700
H569        H  0.40749368  0.81993055  0.60607286     0.12700
H570        H  0.40267774  0.82016637  0.57518338     0.12700
H571        H  0.50466839  0.54008648  0.60018244     0.26000
H572        H  0.54506933  0.54001884  0.57575091     0.26000
O573        O  0.01881170  0.79795118  0.45847311    -0.73100
O574        O  0.08687782  0.69446935  0.49252144    -0.74100
O575        O  0.09067146  0.69973947  0.45776275    -0.62700
O576        O  0.01550900  0.79296252  0.49276633    -0.71200
O577        O  0.43273398  0.80804312  0.49366877    -0.70700
O578        O  0.49313066  0.70579505  0.45878922    -0.62000
O579        O  0.49299556  0.70305868  0.49298783    -0.74500
O580        O  0.43405738  0.81085133  0.45947225    -0.73300
Cu581      Cu  0.05572955  0.74825130  0.47543321     1.04600
Cu582      Cu  0.46042464  0.75528135  0.47622852     1.04300
C583        C  0.47052199  0.84781850  0.45323361     0.93000
C584        C  0.54343546  0.71336952  0.49942388     0.92200
C585        C  0.54205117  0.71979123  0.45198047     0.84300
C586        C  0.47003220  0.84244725  0.50061222     0.90600
C587        C  0.46094383  0.04316184  0.72510407    -0.02700
N588        N  0.54295352  0.52298090  0.33748626    -0.36800
N589        N  0.47017040  0.92977798  0.36109359    -0.57400
N590        N  0.55596997  0.52402050  0.38494112    -0.36800
N591        N  0.54616740  0.61615944  0.36160245    -0.57400
C592        C  0.49984893  0.97336433  0.32898317     0.26800
C593        C  0.52930913  0.57246142  0.32901322     0.26800
C594        C  0.41862561  0.97290877  0.39004360     0.26800
C595        C  0.54005623  0.57157416  0.39367664     0.26800
C596        C  0.49432510  0.89513851  0.34986227     0.35400
C597        C  0.47147268  0.89805501  0.37453421     0.35400
C598        C  0.55948656  0.64905581  0.34886807     0.35400
C599        C  0.56196291  0.64931601  0.37423596     0.35400
C600        C  0.50066827  0.99215720  0.31357126    -0.22100
C601        C  0.50535883  0.55367205  0.31485621    -0.22100
C602        C  0.37788166  0.98740697  0.40159647    -0.22100
C603        C  0.51981023  0.55270954  0.40815412    -0.22100
C604        C  0.50859472  0.84029470  0.35612318    -0.23200
C605        C  0.49572267  0.84259549  0.37186709    -0.23100
C606        C  0.58481038  0.70306047  0.35351553    -0.23200
C607        C  0.58543065  0.70364308  0.36961941    -0.23100
C608        C  0.50227209  0.91172435  0.33399328    -0.18500
C609        C  0.54211350  0.63350251  0.33342442    -0.18500
C610        C  0.55158626  0.63150533  0.38977614    -0.18500
C611        C  0.44791816  0.91830261  0.38888998    -0.18500
H612        H  0.50249150  0.96409416  0.30326525     0.14400
H613        H  0.49142480  0.58166894  0.30529945     0.14400
H614        H  0.35646798  0.95789940  0.40987992     0.14400
H615        H  0.50562288  0.57954348  0.41796021     0.14400
H616        H  0.52628582  0.80283221  0.34987061     0.12700
H617        H  0.50155946  0.80715935  0.38024227     0.12700
H618        H  0.60126347  0.73844350  0.34608517     0.12700
H619        H  0.60147157  0.73957460  0.37705083     0.12700
H620        H  0.56735315  0.52328248  0.34778198     0.26000
H621        H  0.57985358  0.52526812  0.37453011     0.26000
O622        O  0.46312017  0.82725212  0.28434183    -0.73100
O623        O  0.48213000  0.69851858  0.31732565    -0.74100
O624        O  0.46449172  0.83015598  0.31788532    -0.62700
O625        O  0.47898582  0.70321877  0.28379373    -0.71200
O626        O  0.06981396  0.65630868  0.28175565    -0.70700
O627        O  0.05836126  0.78819488  0.31513381    -0.62000
O628        O  0.07952872  0.65665684  0.31537797    -0.74500
O629        O  0.05125881  0.78037968  0.28168358    -0.73300
Cu630      Cu  0.46894405  0.76430556  0.30104982     1.04600
Cu631      Cu  0.06801546  0.72096560  0.29861953     1.04300
C632        C  0.50944064  0.85162016  0.27824627     0.93000
C633        C  0.53434139  0.68399316  0.32195395     0.92200
C634        C  0.51009914  0.86093674  0.32231913     0.84300
C635        C  0.52970367  0.69181805  0.27769072     0.90600
C636        C  0.48097261  0.02083550  0.22588267    -0.02700
C637        C  0.50300036  0.89126813  0.26437869    -0.06300
C638        C  0.44764213  0.91726896  0.26159238    -0.17500
C639        C  0.43762079  0.95436530  0.24871222     0.10900
C640        C  0.48474423  0.96774977  0.23791843    -0.06300
C641        C  0.03077382  0.87548751  0.23847808    -0.17500
C642        C  0.03829501  0.83587023  0.25091880     0.10900
S643        S  0.36302039  0.98231165  0.24650538    -0.32500
S644        S  0.10947591  0.79961115  0.25209006    -0.32500
H645        H  0.08421977  0.74290742  0.25494304     0.28900
H646        H  0.33375278  0.93909555  0.25569334     0.28900
H647        H  0.41169602  0.90915018  0.26977835     0.19500
H648        H  0.07028682  0.88579251  0.23178296     0.19500
C649        C  0.52947003  0.57769939  0.23579370    -0.06300
C650        C  0.06675351  0.54364966  0.23964340    -0.17500
C651        C  0.07187082  0.58067151  0.25287979     0.10900
C652        C  0.53231161  0.65287851  0.26336324    -0.06300
C653        C  0.48483422  0.65478314  0.25268365    -0.17500
C654        C  0.48264831  0.61931664  0.23896915     0.10900
S655        S  0.14323802  0.61627877  0.25603410    -0.32500
S656        S  0.41804777  0.62941259  0.22666883    -0.32500
H657        H  0.39681028  0.68234671  0.23344745     0.28900
H658        H  0.15050404  0.59013345  0.27081557     0.28900
H659        H  0.10643761  0.53954852  0.23260128     0.19500
H660        H  0.44835481  0.68444733  0.25525093     0.19500
C661        C  0.46123672  0.86813064  0.43680637    -0.06300
C662        C  0.00433955  0.83757895  0.42790921    -0.17500
C663        C  0.00320221  0.85019144  0.41192652     0.10900
C664        C  0.46064745  0.88881459  0.40402503    -0.06300
C665        C  0.41471822  0.85580437  0.41111611    -0.17500
C666        C  0.41317100  0.84734527  0.42733362     0.10900
S667        S  0.06046573  0.89988353  0.40455820    -0.32500
S668        S  0.34636446  0.81336504  0.43508921    -0.32500
H669        H  0.34170477  0.85461176  0.44746969     0.28900
H670        H  0.06160789  0.87649170  0.38934250     0.28900
H671        H  0.04117607  0.85526802  0.43475031     0.19500
H672        H  0.37661073  0.84190673  0.40416027     0.19500
C673        C  0.54933258  0.70353721  0.43527584    -0.06300
C674        C  0.49865134  0.70822259  0.42569716    -0.17500
C675        C  0.50077954  0.69519717  0.40974092     0.10900
C676        C  0.55425065  0.67430676  0.40311444    -0.06300
C677        C  0.12893750  0.62002122  0.41135050    -0.17500
C678        C  0.12460439  0.63535956  0.42733123     0.10900
S679        S  0.43189914  0.69814991  0.39893228    -0.32500
S680        S  0.18974706  0.63296883  0.43964924    -0.32500
H681        H  0.23074275  0.61922095  0.42776896     0.28900
H682        H  0.45836457  0.70326530  0.38413338     0.28900
H683        H  0.45651791  0.72166514  0.43072318     0.19500
H684        H  0.17064573  0.60349282  0.40677882     0.19500
C685        C  0.45966507  0.85992297  0.51707708    -0.06300
C686        C  0.00145118  0.79069760  0.52572473    -0.17500
C687        C  0.99484310  0.80538432  0.54148937     0.10900
C688        C  0.44748741  0.88726159  0.54918302    -0.06300
C689        C  0.39764966  0.88747948  0.53921703    -0.17500
C690        C  0.40317344  0.87434654  0.52324047     0.10900
S691        S  0.06224781  0.81106346  0.55290498    -0.32500
S692        S  0.33791018  0.88212891  0.51120097    -0.32500
H693        H  0.36876837  0.90457053  0.49814680     0.28900
H694        H  0.03555062  0.80306215  0.56752613     0.28900
H695        H  0.04549316  0.77936191  0.52150520     0.19500
H696        H  0.35561792  0.90421591  0.54356362     0.19500
C697        C  0.56984371  0.67152004  0.54813083    -0.06300
C698        C  0.52070333  0.64762756  0.54003888    -0.17500
C699        C  0.51348033  0.65593114  0.52399222     0.10900
C700        C  0.55538558  0.69124625  0.51556650    -0.06300
C701        C  0.11487283  0.65255012  0.52298057    -0.17500
C702        C  0.12261429  0.64131065  0.53904333     0.10900
S703        S  0.45057987  0.61813725  0.51516193    -0.32500
S704        S  0.19093183  0.66644596  0.54812331    -0.32500
H705        H  0.16906135  0.66709206  0.56349545     0.28900
H706        H  0.48373574  0.59699778  0.50236469     0.28900
H707        H  0.48948445  0.61873623  0.54616229     0.19500
H708        H  0.14896519  0.67805584  0.51692046     0.19500
C709        C  0.47802510  0.90918128  0.68689849    -0.06300
C710        C  0.42486978  0.93994560  0.68906520    -0.17500
C711        C  0.41699377  0.98030135  0.70146228     0.10900
C712        C  0.46330581  0.99038374  0.71276667    -0.06300
C713        C  0.01400655  0.89245262  0.71182890    -0.17500
C714        C  0.02041563  0.85286875  0.69911045     0.10900
S715        S  0.34533917  0.01542341  0.70260791    -0.32500
S716        S  0.08804692  0.81034807  0.69832144    -0.32500
H717        H  0.05913979  0.75679312  0.69390080     0.28900
H718        H  0.36350330  0.52042569  0.69187985     0.28900
H719        H  0.38893297  0.93263170  0.68081442     0.19500
H720        H  0.05245299  0.89851529  0.71925336     0.19500
C721        C  0.51409442  0.67381322  0.68744839    -0.06300
C722        C  0.46760724  0.67468929  0.69840200    -0.17500
C723        C  0.46860276  0.64099803  0.71224443     0.10900
C724        C  0.51710883  0.60113650  0.71504269    -0.06300
C725        C  0.06130004  0.53854836  0.70170738    -0.17500
C726        C  0.06096513  0.57495720  0.68842890     0.10900
S727        S  0.40549823  0.65134364  0.72509109    -0.32500
S728        S  0.12214808  0.57137275  0.67472418    -0.32500
H729        H  0.15567139  0.52831974  0.68262483     0.28900
H730        H  0.38761727  0.70724665  0.71946609     0.28900
H731        H  0.42930347  0.70211847  0.69599173     0.19500
H732        H  0.09936114  0.51026775  0.70348843     0.19500
C733        C  0.33452840  0.03359483  0.76459893    -0.06300
C734        C  0.33941758  0.98442445  0.75456393    -0.17500
C735        C  0.37606150  0.98499150  0.74124926     0.10900
C736        C  0.40721491  0.03900609  0.73686456    -0.06300
C737        C  0.46258176  0.57973751  0.74962832    -0.17500
C738        C  0.42512413  0.57556864  0.76276574     0.10900
S739        S  0.38400279  0.91308004  0.73171101    -0.32500
S740        S  0.42424548  0.63637659  0.77668785    -0.32500
H741        H  0.45805668  0.67726392  0.76783370     0.28900
H742        H  0.36639235  0.87677985  0.74429482     0.28900
H743        H  0.31470983  0.94409084  0.75737473     0.19500
H744        H  0.48969609  0.61945538  0.74833144     0.19500
C745        C  0.09508174  0.99291467  0.76425085    -0.06300
C746        C  0.14364169  0.53506944  0.75309265    -0.17500
C747        C  0.10665319  0.53659728  0.73978980     0.10900
C748        C  0.02049513  0.98709775  0.73656329    -0.06300
C749        C  0.02722706  0.93810560  0.74689233    -0.17500
C750        C  0.06183255  0.94087184  0.76058910     0.10900
S751        S  0.09975914  0.60942542  0.73090743    -0.32500
S752        S  0.05641508  0.87832839  0.77367190    -0.32500
H753        H  0.05275140  0.91371219  0.78725930     0.28900
H754        H  0.11263919  0.64364674  0.74433231     0.28900
H755        H  0.16758455  0.57520100  0.75658395     0.19500
H756        H  0.00098400  0.89802045  0.74494013     0.19500
C757        C  0.35057846  0.01300875  0.18717447    -0.06300
C758        C  0.36027896  0.96172149  0.19607145    -0.17500
C759        C  0.39856717  0.96146106  0.20908985     0.10900
C760        C  0.42686517  0.01616048  0.21425364    -0.06300
C761        C  0.47100306  0.55747245  0.20105644    -0.17500
C762        C  0.43465148  0.55252591  0.18770895     0.10900
S763        S  0.41345464  0.88825612  0.21708404    -0.32500
S764        S  0.43738177  0.61101540  0.17326104    -0.32500
H765        H  0.47268327  0.65175163  0.18184896     0.28900
H766        H  0.36465021  0.85709495  0.21054908     0.28900
H767        H  0.33892559  0.92044525  0.19240432     0.19500
H768        H  0.49819014  0.59715168  0.20237123     0.19500
C769        C  0.10994734  0.97222919  0.18672031    -0.06300
C770        C  0.11806378  0.51127757  0.18963179    -0.17500
C771        C  0.07837409  0.51261799  0.20225313     0.10900
C772        C  0.03258636  0.96754045  0.21366402    -0.06300
C773        C  0.04308016  0.91712487  0.20395173    -0.17500
C774        C  0.08027062  0.91868036  0.19071806     0.10900
S775        S  0.03293159  0.57854459  0.20417481    -0.32500
S776        S  0.08615825  0.85251768  0.17867648    -0.32500
H777        H  0.04230119  0.81793685  0.18628725     0.28900
H778        H  0.03952805  0.59963147  0.18882215     0.28900
H779        H  0.11806742  0.54777768  0.18140814     0.19500
H780        H  0.02028368  0.87582027  0.20650348     0.19500
C781        C  0.32148175  0.05280902  0.93670003    -0.06300
C782        C  0.33121474  0.57286667  0.92762271    -0.17500
C783        C  0.34582065  0.58269975  0.91184835     0.10900
C784        C  0.34038941  0.07816730  0.90448495    -0.06300
C785        C  0.36849189  0.02984430  0.91171316    -0.17500
C786        C  0.36057210  0.01750105  0.92762990     0.10900
S787        S  0.31311048  0.64603885  0.90234530    -0.32500
S788        S  0.40455080  0.95837860  0.93568698    -0.32500
H789        H  0.41670601  0.98898700  0.94973766     0.28900
H790        H  0.32145963  0.62667167  0.88691647     0.28900
H791        H  0.29804004  0.60104777  0.93300484     0.19500
H792        H  0.39977486  0.00341823  0.90504118     0.19500
C793        C  0.14694194  0.95414656  0.93409676    -0.06300
C794        C  0.19371681  0.48045715  0.92375759    -0.17500
C795        C  0.18344038  0.47982155  0.90767374     0.10900
C796        C  0.11087123  0.95462321  0.90242135    -0.06300
C797        C  0.10219649  0.90351319  0.91171994    -0.17500
C798        C  0.12016236  0.90260698  0.92747208     0.10900
S799        S  0.17872330  0.55076459  0.89792060    -0.32500
S800        S  0.10309874  0.83675714  0.93868828    -0.32500
H801        H  0.09424353  0.86655634  0.95296300     0.28900
H802        H  0.18897758  0.52842468  0.88282287     0.28900
H803        H  0.20246460  0.52304296  0.92940374     0.19500
H804        H  0.07656086  0.86615999  0.90708680     0.19500
C805        C  0.33104501  0.05281715  0.04876779    -0.06300
C806        C  0.32317509  0.99472411  0.04299471    -0.17500
C807        C  0.31551851  0.98381095  0.02701955     0.10900
C808        C  0.30944748  0.03233158  0.01650130    -0.06300
C809        C  0.34558010  0.56902058  0.02211676    -0.17500
C810        C  0.36107158  0.57808975  0.03781459     0.10900
S811        S  0.32110757  0.90705405  0.02098484    -0.32500
S812        S  0.37732262  0.65333219  0.04414192    -0.32500
H813        H  0.37255366  0.64217684  0.06021686     0.28900
H814        H  0.26555113  0.90610851  0.01376104     0.28900
H815        H  0.33172021  0.95737699  0.05064899     0.19500
H816        H  0.34092734  0.60734253  0.01456733     0.19500
C817        C  0.12128191  0.93321287  0.04763462    -0.06300
C818        C  0.14719791  0.45486147  0.04039712    -0.17500
C819        C  0.15604960  0.46521570  0.02437210     0.10900
C820        C  0.14618884  0.94802401  0.01524966    -0.06300
C821        C  0.14756693  0.89115455  0.02222374    -0.17500
C822        C  0.13643316  0.88351662  0.03829469     0.10900
S823        S  0.13788366  0.53835659  0.01701252    -0.32500
S824        S  0.13849350  0.80911857  0.04613806    -0.32500
H825        H  0.14449798  0.82680956  0.06184114     0.28900
H826        H  0.12948080  0.56674890  0.03151812     0.28900
H827        H  0.12579578  0.48849209  0.04750654     0.19500
H828        H  0.15744910  0.85235190  0.01513589     0.19500
N829        N  0.52186684  0.50442548  0.11241385    -0.36800
N830        N  0.89010033  0.98913537  0.08863332    -0.57400
N831        N  0.98028498  0.95229316  0.06678192    -0.36800
N832        N  0.57020926  0.07580944  0.09076786    -0.57400
C833        C  0.97245633  0.45315734  0.12117006     0.26800
C834        C  0.57169953  0.48966737  0.12067934     0.26800
C835        C  0.92992066  0.94612415  0.05834789     0.26800
C836        C  0.52804171  0.07797899  0.05887810     0.26800
C837        C  0.89484265  0.43942849  0.09996880     0.35400
C838        C  0.86249266  0.00370914  0.07511897     0.35400
C839        C  0.64928610  0.52187386  0.10112942     0.35400
C840        C  0.60051653  0.10440416  0.07925751     0.35400
C841        C  0.98995858  0.45822999  0.13667822    -0.22100
C842        C  0.55326608  0.46434585  0.13466382    -0.22100
C843        C  0.93960178  0.90832280  0.04577676    -0.22100
C844        C  0.51548487  0.05503320  0.04417155    -0.22100
C845        C  0.83893177  0.44820365  0.09347712    -0.23200
C846        C  0.81354962  0.03872124  0.07825070    -0.23100
C847        C  0.70608885  0.54050558  0.09666528    -0.23200
C848        C  0.65382143  0.12693148  0.08495982    -0.23100
C849        C  0.91103842  0.45261674  0.11573501    -0.18500
C850        C  0.63294344  0.50203616  0.11631684    -0.18500
C851        C  0.58359324  0.10194079  0.06336604    -0.18500
C852        C  0.87979590  0.98238948  0.06020880    -0.18500
H853        H  0.96099140  0.46196728  0.14673743     0.14400
H854        H  0.58148669  0.44907445  0.14404089     0.14400
H855        H  0.90898598  0.89621869  0.03651908     0.14400
H856        H  0.54538894  0.04895960  0.03441863     0.14400
H857        H  0.79992502  0.46454878  0.09936642     0.12700
H858        H  0.78330642  0.05780909  0.06987599     0.12700
H859        H  0.74453467  0.54791140  0.10404496     0.12700
H860        H  0.68833729  0.15011509  0.07846555     0.12700
H861        H  0.52161779  0.52975855  0.10233702     0.26000
H862        H  0.98808669  0.98611592  0.07495256     0.26000
O863        O  0.79722837  0.07903096  0.99207748    -0.73100
O864        O  0.68805623  0.14246848  0.95816646    -0.74100
O865        O  0.69454386  0.14603983  0.99331204    -0.62700
O866        O  0.79022816  0.07776355  0.95778676    -0.71200
O867        O  0.78703617  0.37501218  0.95687963    -0.70700
O868        O  0.69635178  0.45034474  0.99235158    -0.62000
O869        O  0.69039781  0.44909622  0.95800518    -0.74500
O870        O  0.79249781  0.37633057  0.99161619    -0.73300
Cu871      Cu  0.74420085  0.11440797  0.97533879     1.04600
Cu872      Cu  0.73951990  0.40996738  0.97473634     1.04300
C873        C  0.83337320  0.40894065  0.99779244     0.93000
C874        C  0.70635407  0.49751683  0.95126648     0.92200
C875        C  0.71573983  0.49879586  0.99862281     0.84300
C876        C  0.82577596  0.40818416  0.95008829     0.90600
O877        O  0.82666399  0.41933035  0.16520110    -0.73100
O878        O  0.69672121  0.44016102  0.13239826    -0.74100
O879        O  0.82773931  0.41845642  0.13161694    -0.62700
O880        O  0.70347262  0.43988684  0.16580746    -0.71200
O881        O  0.67635310  0.06702602  0.16794713    -0.70700
O882        O  0.80537771  0.06386926  0.13384412    -0.62000
O883        O  0.67288932  0.08021630  0.13464746    -0.74500
O884        O  0.80087766  0.05254167  0.16714534    -0.73300
Cu885      Cu  0.76306657  0.42619911  0.14854513     1.04600
Cu886      Cu  0.73928008  0.06925608  0.15078382     1.04300
C887        C  0.85176256  0.46561699  0.17119477     0.93000
C888        C  0.68347627  0.49268144  0.12775776     0.92200
C889        C  0.85991477  0.46285864  0.12709415     0.86100
C890        C  0.69453715  0.49104417  0.17196312     0.90600
N891        N  0.52000695  0.56137051  0.88240469    -0.36800
N892        N  0.61033474  0.53221425  0.86040255    -0.57400
N893        N  0.51446926  0.50557036  0.83751224    -0.36800
N894        N  0.92292504  0.43370231  0.86016610    -0.57400
C895        C  0.56949552  0.58011075  0.88993219     0.26800
C896        C  0.96815842  0.42459060  0.89208788     0.26800
C897        C  0.56374321  0.50625741  0.82807649     0.26800
C898        C  0.96390970  0.47272320  0.82842828     0.26800
C899        C  0.64206662  0.52705854  0.87383506     0.35400
C900        C  0.64244598  0.50614864  0.84895495     0.35400
C901        C  0.89095836  0.40900226  0.87198697     0.35400
C902        C  0.88832083  0.43112693  0.84725413     0.35400
C903        C  0.55415967  0.61748092  0.90220148    -0.22100
C904        C  0.98544293  0.44121767  0.90704366    -0.22100
C905        C  0.54445814  0.50922771  0.81270395    -0.22100
C906        C  0.98166836  0.50223930  0.81494292    -0.22100
C907        C  0.69496194  0.49818842  0.87090056    -0.23200
C908        C  0.69587041  0.48650433  0.85506181    -0.23100
C909        C  0.83568654  0.39044463  0.86665355    -0.23200
C910        C  0.83423704  0.40380813  0.85096361    -0.23100
C911        C  0.62442041  0.55147424  0.88840594    -0.18500
C912        C  0.90932848  0.40968918  0.88776815    -0.18500
C913        C  0.90293891  0.45842762  0.83272966    -0.18500
C914        C  0.62523324  0.50187638  0.83300469    -0.18500
H915        H  0.58350305  0.63650349  0.91097392     0.14400
H916        H  0.95787858  0.44762533  0.91725208     0.14400
H917        H  0.57215843  0.50973287  0.80235152     0.14400
H918        H  0.95295218  0.52049127  0.80605826     0.14400
H919        H  0.72949949  0.48790060  0.87921021     0.12700
H920        H  0.73125516  0.46542602  0.84870703     0.12700
H921        H  0.80000584  0.37030445  0.87340009     0.12700
H922        H  0.79743449  0.39402373  0.84321136     0.12700
H923        H  0.51778255  0.52422497  0.87508502     0.26000
H924        H  0.51481582  0.49818867  0.84945984     0.26000
O925        O  0.82109368  0.42722089  0.81599600    -0.73100
O926        O  0.69976100  0.45457008  0.78176571    -0.74100
O927        O  0.82418484  0.43847950  0.78295098    -0.62700
O928        O  0.68964563  0.44596756  0.81526884    -0.71200
O929        O  0.65876572  0.08489526  0.81747707    -0.70700
O930        O  0.78046949  0.06160126  0.78305776    -0.62000
O931        O  0.65574018  0.07851332  0.78385405    -0.74500
O932        O  0.78985734  0.06552089  0.81625485    -0.73300
Cu933      Cu  0.75800492  0.43827843  0.79908336     1.04600
Cu934      Cu  0.72163734  0.07596827  0.80027645     1.04300
C935        C  0.85183234  0.47081335  0.82162690     0.93000
C936        C  0.68790721  0.50693335  0.77694960     0.92200
C937        C  0.85019535  0.48670573  0.77850553     0.84300
C938        C  0.67542150  0.49656827  0.82122180     0.90600
O939        O  0.94497100  0.30373730  0.63295948    -0.73100
O940        O  0.93397146  0.17283001  0.66589501    -0.74100
O941        O  0.95199265  0.29698476  0.66633341    -0.62700
O942        O  0.92551997  0.17157296  0.63262197    -0.71200
O943        O  0.52449121  0.21626206  0.63364904    -0.70700
O944        O  0.54848696  0.35246687  0.66469764    -0.62000
O945        O  0.53019927  0.22812716  0.66672524    -0.74500
O946        O  0.54416628  0.34724577  0.63142987    -0.73300
Cu947      Cu  0.93588623  0.23676846  0.64931853     1.04600
Cu948      Cu  0.54006463  0.28555328  0.64892744     1.04300
C949        C  0.99613435  0.31903763  0.62748263     0.93000
C950        C  0.98127852  0.14822207  0.67102201     0.92200
C951        C  0.00411643  0.30917304  0.67162038     0.84300
C952        C  0.96935532  0.14122685  0.62735812     0.90600
N953        N  0.95782745  0.97798609  0.61232571    -0.36800
N954        N  0.93562284  0.06810717  0.58853274    -0.57400
N955        N  0.92398715  0.97359220  0.56519818    -0.36800
N956        N  0.03538304  0.38606242  0.58896262    -0.57400
C957        C  0.97254997  0.02892274  0.62041081     0.26800
C958        C  0.00743628  0.43148931  0.62130639     0.26800
C959        C  0.92970214  0.02262160  0.55618017     0.26800
C960        C  0.09203205  0.42566426  0.56058422     0.26800
C961        C  0.93203824  0.10307841  0.60141156     0.35400
C962        C  0.91271976  0.09951590  0.57650562     0.35400
C963        C  0.00699041  0.35380070  0.60001183     0.35400
C964        C  0.03010162  0.35534926  0.57532287     0.35400
C965        C  0.99954437  0.01219897  0.63427330    -0.22100
C966        C  0.00631107  0.45009018  0.63679124    -0.22100
C967        C  0.94736891  0.00621042  0.54123849    -0.22100
C968        C  0.13448112  0.43875644  0.54931992    -0.22100
C969        C  0.90557447  0.15666226  0.59748485    -0.23200
C970        C  0.89398034  0.15465268  0.58169345    -0.23100
C971        C  0.98526891  0.30125939  0.59343998    -0.23200
C972        C  0.99848624  0.30290322  0.57769055    -0.23100
C973        C  0.95791022  0.08944641  0.61613698    -0.18500
C974        C  0.00269010  0.37005130  0.61601575    -0.18500
C975        C  0.05804692  0.37289268  0.56121749    -0.18500
C976        C  0.91607153  0.08151701  0.56070376    -0.18500
H977        H  0.01499658  0.04150798  0.64353194     0.14400
H978        H  0.00306219  0.42186932  0.64698463     0.14400
H979        H  0.95492452  0.03427192  0.53119533     0.14400
H980        H  0.15283802  0.40878919  0.54068115     0.14400
H981        H  0.89547972  0.19356497  0.60514431     0.12700
H982        H  0.87513015  0.19002874  0.57477007     0.12700
H983        H  0.96176011  0.26604757  0.59941231     0.12700
H984        H  0.98785038  0.26887302  0.56911183     0.12700
H985        H  0.93171199  0.97593343  0.60236021     0.26000
H986        H  0.90501609  0.97190010  0.57627007     0.26000
O987        O  0.57188572  0.30088424  0.45826109    -0.73100
O988        O  0.50773603  0.20959987  0.49473285    -0.74100
O989        O  0.50894274  0.19617085  0.46074678    -0.62700
O990        O  0.57188881  0.31394960  0.49252227    -0.71200
O991        O  0.96718910  0.30271971  0.49041262    -0.70700
O992        O  0.90828987  0.18803941  0.45673419    -0.62000
O993        O  0.90141385  0.19881974  0.49125226    -0.74500
O994        O  0.97306057  0.29325225  0.45590660    -0.73300
Cu995      Cu  0.54287167  0.25342333  0.47663722     1.04600
Cu996      Cu  0.93458834  0.24755695  0.47348997     1.04300
C997        C  0.02265887  0.27715923  0.44994133     0.93000
C998        C  0.93652733  0.16541971  0.49892456     0.92200
C999        C  0.94456090  0.14870549  0.45161578     0.84300
C1000       C  0.01651176  0.29256068  0.49739863     0.90600
C1001       C  0.01630689  0.48229228  0.72449008    -0.02700
N1002       N  0.99929994  0.96360486  0.33737232    -0.36800
N1003       N  0.06307287  0.37312197  0.36070180    -0.57400
N1004       N  0.93193359  0.96008284  0.38111813    -0.36800
N1005       N  0.95980130  0.05498302  0.36026409    -0.57400
C1006       C  0.03593311  0.41472301  0.32839512     0.26800
C1007       C  0.00099639  0.01408213  0.32844989     0.26800
C1008       C  0.06353517  0.41862673  0.39293058     0.26800
C1009       C  0.90437699  0.00597631  0.38814488     0.26800
C1010       C  0.06687018  0.33764896  0.34794923     0.35400
C1011       C  0.07695061  0.33909568  0.37318952     0.35400
C1012       C  0.98435608  0.09177384  0.34951820     0.35400
C1013       C  0.95241849  0.08736351  0.37358502     0.35400
C1014       C  0.00932580  0.43263022  0.31458309    -0.22100
C1015       C  0.00486139  0.99646629  0.31291398    -0.22100
C1016       C  0.04341166  0.43752158  0.40744269    -0.22100
C1017       C  0.86558784  0.98469547  0.39949271    -0.22100
C1018       C  0.08436191  0.28094209  0.35245278    -0.23200
C1019       C  0.08988264  0.28170569  0.36845733    -0.23100
C1020       C  0.98988778  0.14867503  0.35590061    -0.23200
C1021       C  0.97112035  0.14557379  0.37124496    -0.23100
C1022       C  0.04739779  0.35366435  0.33274863    -0.18500
C1023       C  0.99965598  0.07547305  0.33390011    -0.18500
C1024       C  0.92539680  0.06499831  0.38739541    -0.18500
C1025       C  0.07244577  0.35839683  0.38883591    -0.18500
H1026       H  0.99235763  0.40401910  0.30534972     0.14400
H1027       H  0.00699692  0.02538791  0.30285140     0.14400
H1028       H  0.03013868  0.41094312  0.41736306     0.14400
H1029       H  0.83978849  0.01056308  0.40771167     0.14400
H1030       H  0.09124480  0.24239915  0.34506739     0.12700
H1031       H  0.10122267  0.24427106  0.37577847     0.12700
H1032       H  0.00509315  0.18843769  0.35002638     0.12700
H1033       H  0.96909912  0.18226984  0.37948852     0.12700
H1034       H  0.00129182  0.96302868  0.34948374     0.26000
H1035       H  0.97109770  0.96334304  0.37461582     0.26000
O1036       O  0.97897565  0.27834494  0.28370125    -0.73100
O1037       O  0.96399976  0.15727388  0.31837072    -0.74100
O1038       O  0.98424003  0.28820484  0.31695826    -0.62700
O1039       O  0.96162052  0.15412679  0.28508546    -0.71200
O1040       O  0.55353516  0.20429636  0.28425075    -0.70700
O1041       O  0.57259501  0.33118118  0.31754254    -0.62000
O1042       O  0.55382991  0.19948202  0.31757219    -0.74500
O1043       O  0.57058128  0.32859981  0.28435174    -0.73300
Cu1044     Cu  0.96901218  0.22005135  0.30121955     1.04600
Cu1045     Cu  0.56591008  0.26544006  0.30109593     1.04300
C1046       C  0.02945058  0.29012976  0.27745206     0.93000
C1047       C  0.00891897  0.12636631  0.32252099     0.92200
C1048       C  0.03711189  0.30292828  0.32132896     0.84300
C1049       C  0.00715362  0.12907539  0.27898614     0.90600
C1050       C  0.01954003  0.45485651  0.22409764    -0.02700
C1051       C  0.03098811  0.32746407  0.26309617    -0.06300
C1052       C  0.98424395  0.32051438  0.25236406    -0.17500
C1053       C  0.97956132  0.35560083  0.23882415     0.10900
C1054       C  0.02498783  0.39962301  0.23542185    -0.06300
C1055       C  0.57590583  0.43844877  0.24230288    -0.17500
C1056       C  0.57785762  0.40071558  0.25531945     0.10900
S1057       S  0.91278438  0.34237944  0.22731189    -0.32500
S1058       S  0.64594028  0.36058324  0.25827892    -0.32500
H1059       H  0.65680202  0.38765227  0.27287861     0.28900
H1060       H  0.87849573  0.31270140  0.23869928     0.28900
H1061       H  0.95017387  0.28719977  0.25479102     0.19500
H1062       H  0.61683695  0.44395343  0.23580985     0.19500
C1063       C  0.98087668  0.01198854  0.23850684    -0.06300
C1064       C  0.53755390  0.07952524  0.24633989    -0.17500
C1065       C  0.54352189  0.11257838  0.26009117     0.10900
C1066       C  0.99919258  0.08612612  0.26571501    -0.06300
C1067       C  0.94488074  0.08583060  0.25759434    -0.17500
C1068       C  0.93429608  0.04981451  0.24431401     0.10900
S1069       S  0.61142839  0.10203306  0.27095842    -0.32500
S1070       S  0.86007810  0.05464710  0.23604830    -0.32500
H1071       H  0.83590458  0.09786105  0.24609088     0.28900
H1072       H  0.58223558  0.09544653  0.28539372     0.28900
H1073       H  0.57545159  0.05331046  0.24279164     0.19500
H1074       H  0.91008274  0.11494534  0.26170743     0.19500
C1075       C  0.03709749  0.29189404  0.43343417    -0.06300
C1076       C  0.60314320  0.35835669  0.42873964    -0.17500
C1077       C  0.61261003  0.37215829  0.41296134     0.10900
C1078       C  0.06696479  0.31506901  0.40188438    -0.06300
C1079       C  0.00849285  0.29932228  0.40599906    -0.17500
C1080       C  0.99247328  0.29075259  0.42165767     0.10900
S1081       S  0.68674142  0.39405241  0.40702729    -0.32500
S1082       S  0.91407180  0.28406709  0.42624704    -0.32500
H1083       H  0.89364857  0.27384042  0.41092736     0.28900
H1084       H  0.67733954  0.38632265  0.39092519     0.28900
H1085       H  0.64065266  0.35861740  0.43670776     0.19500
H1086       H  0.97390503  0.30298443  0.39724345     0.19500
C1087       C  0.93617343  0.12151118  0.43563074    -0.06300
C1088       C  0.88817840  0.14016692  0.42623990    -0.17500
C1089       C  0.88560999  0.12755980  0.41011076     0.10900
C1090       C  0.93201687  0.09542763  0.40291337    -0.06300
C1091       C  0.49468250  0.14882087  0.41186275    -0.17500
C1092       C  0.50190576  0.16067793  0.42788162     0.10900
S1093       S  0.82077976  0.15140624  0.39950770    -0.32500
S1094       S  0.57367310  0.14447023  0.43643247    -0.32500
H1095       H  0.60562224  0.13832453  0.42238917     0.28900
H1096       H  0.84688889  0.15009807  0.38460755     0.28900
H1097       H  0.85282553  0.16621692  0.43139660     0.19500
H1098       H  0.53026229  0.12747363  0.40544865     0.19500
C1099       C  0.02890345  0.31761269  0.51341724    -0.06300
C1100       C  0.59777238  0.35551566  0.52301211    -0.17500
C1101       C  0.60631055  0.36995288  0.53888396     0.10900
C1102       C  0.04362997  0.34432453  0.54586161    -0.06300
C1103       C  0.99788904  0.37025759  0.53709233    -0.17500
C1104       C  0.99067481  0.35839663  0.52109148     0.10900
S1105       S  0.67058867  0.33983847  0.54856811    -0.32500
S1106       S  0.93357873  0.39942368  0.51117748    -0.32500
H1107       H  0.96964340  0.41235435  0.49814371     0.28900
H1108       H  0.64827327  0.34450596  0.56384405     0.28900
H1109       H  0.62828877  0.32458326  0.51758482     0.19500
H1110       H  0.96956648  0.40310168  0.54260710     0.19500
C1111       C  0.91345454  0.12554008  0.54775074    -0.06300
C1112       C  0.86334292  0.12301282  0.53781602    -0.17500
C1113       C  0.86842767  0.13574587  0.52178065     0.10900
C1114       C  0.92467502  0.15194306  0.51558029    -0.06300
C1115       C  0.49611774  0.22214670  0.52736388    -0.17500
C1116       C  0.49250659  0.21113855  0.54333214     0.10900
S1117       S  0.80341978  0.12458502  0.50972303    -0.32500
S1118       S  0.56084127  0.21603602  0.55440320    -0.32500
H1119       H  0.53421574  0.21878503  0.56920773     0.28900
H1120       H  0.83457741  0.10334523  0.49661567     0.28900
H1121       H  0.82182326  0.10432605  0.54218139     0.19500
H1122       H  0.53844903  0.23712402  0.52259402     0.19500
C1123       C  0.00974305  0.34955096  0.68569638    -0.06300
C1124       C  0.95855379  0.37965868  0.69056963    -0.17500
C1125       C  0.95813691  0.41805090  0.70353849     0.10900
C1126       C  0.01109033  0.42838777  0.71256961    -0.06300
C1127       C  0.56295519  0.46524051  0.70626312    -0.17500
C1128       C  0.56255653  0.42807601  0.69303983     0.10900
S1129       S  0.88713313  0.45036674  0.70838960    -0.32500
S1130       S  0.63165806  0.39233021  0.68821527    -0.32500
H1131       H  0.60685218  0.33453825  0.68943563     0.28900
H1132       H  0.81960253  0.93596933  0.69038333     0.28900
H1133       H  0.91748018  0.37294949  0.68414640     0.19500
H1134       H  0.60526653  0.47189549  0.71206816     0.19500
C1135       C  0.97749864  0.10764107  0.68482560    -0.06300
C1136       C  0.92898179  0.11359933  0.69501188    -0.17500
C1137       C  0.92169430  0.07890500  0.70853880     0.10900
C1138       C  0.96577470  0.03485561  0.71243188    -0.06300
C1139       C  0.51631058  0.10090080  0.70440194    -0.17500
C1140       C  0.52282943  0.13705038  0.69119930     0.10900
S1141       S  0.85637148  0.10088105  0.71952909    -0.32500
S1142       S  0.59027961  0.13027501  0.67971559    -0.32500
H1143       H  0.62008425  0.08940025  0.68926820     0.28900
H1144       H  0.83220914  0.04514147  0.72313781     0.28900
H1145       H  0.89576793  0.14690591  0.69243619     0.19500
H1146       H  0.55273316  0.07193632  0.70734333     0.19500
C1147       C  0.89451752  0.48529706  0.76542793    -0.06300
C1148       C  0.89984815  0.43264236  0.75665577    -0.17500
C1149       C  0.93783679  0.42833605  0.74363674     0.10900
C1150       C  0.96847926  0.48064765  0.73795086    -0.06300
C1151       C  0.91160486  0.04127796  0.74676895    -0.17500
C1152       C  0.87477519  0.04962229  0.75976752     0.10900
S1153       S  0.94784308  0.35350698  0.73601463    -0.32500
S1154       S  0.88145465  0.11951861  0.77035547    -0.32500
H1155       H  0.91202616  0.15195826  0.75875924     0.28900
H1156       H  0.93138174  0.32241154  0.74961808     0.28900
H1157       H  0.87422479  0.39366362  0.76011712     0.19500
H1158       H  0.94102048  0.07750851  0.74355990     0.19500
C1159       C  0.64851252  0.51521118  0.76283816    -0.06300
C1160       C  0.58389723  0.08739470  0.75650003    -0.17500
C1161       C  0.54677791  0.09328273  0.74326429     0.10900
C1162       C  0.57384746  0.53552133  0.73577237    -0.06300
C1163       C  0.58306932  0.47804129  0.74208166    -0.17500
C1164       C  0.61736138  0.46765274  0.75542415     0.10900
S1165       S  0.54031868  0.16825240  0.73565369    -0.32500
S1166       S  0.61470610  0.39257995  0.76286383    -0.32500
H1167       H  0.59624434  0.41087274  0.77783764     0.28900
H1168       H  0.56286537  0.19948107  0.74869902     0.28900
H1169       H  0.60919144  0.12582258  0.76056617     0.19500
H1170       H  0.55916826  0.44027275  0.73725515     0.19500
C1171       C  0.88971776  0.46007785  0.18530700    -0.06300
C1172       C  0.92962601  0.41301242  0.18636833    -0.17500
C1173       C  0.96806881  0.40716618  0.19922622     0.10900
C1174       C  0.96751893  0.45033175  0.21175440    -0.06300
C1175       C  0.92036683  0.02687598  0.20591346    -0.17500
C1176       C  0.88674781  0.03800373  0.19249140     0.10900
S1177       S  0.01576788  0.34244833  0.19928338    -0.32500
S1178       S  0.88815021  0.11315207  0.18479024    -0.32500
H1179       H  0.93791040  0.13451215  0.19321642     0.28900
H1180       H  0.00955588  0.32688346  0.18343581     0.28900
H1181       H  0.93105196  0.38086580  0.17690417     0.19500
H1182       H  0.94372300  0.06403592  0.21112043     0.19500
C1183       C  0.65664612  0.49706320  0.18642791    -0.06300
C1184       C  0.59916798  0.07188303  0.19416849    -0.17500
C1185       C  0.56225891  0.07562175  0.20749550     0.10900
C1186       C  0.58287302  0.51422930  0.21385936    -0.06300
C1187       C  0.59119744  0.45762944  0.20677511    -0.17500
C1188       C  0.62684954  0.44840908  0.19359654     0.10900
S1189       S  0.54956056  0.15042349  0.21483582    -0.32500
S1190       S  0.62951617  0.37288407  0.18635880    -0.32500
H1191       H  0.69157074  0.36912393  0.18853261     0.28900
H1192       H  0.60095493  0.17761052  0.20851200     0.28900
H1193       H  0.61812167  0.11253424  0.18941535     0.19500
H1194       H  0.56712661  0.41934417  0.21119479     0.19500
C1195       C  0.83857473  0.40067680  0.93321731    -0.06300
C1196       C  0.78772722  0.06769741  0.92469061    -0.17500
C1197       C  0.80034700  0.06212034  0.90878333     0.10900
C1198       C  0.86654079  0.40124875  0.90093938    -0.06300
C1199       C  0.87063860  0.34834608  0.90977268    -0.17500
C1200       C  0.85684417  0.34745897  0.92584598     0.10900
S1201       S  0.80362124  0.12961915  0.89740049    -0.32500
S1202       S  0.86865947  0.27914311  0.93637672    -0.32500
H1203       H  0.88080421  0.30580104  0.95092895     0.28900
H1204       H  0.79776388  0.10190803  0.88274427     0.28900
H1205       H  0.77736880  0.11152066  0.92929414     0.19500
H1206       H  0.89062635  0.30932015  0.90451190     0.19500
C1207       C  0.68171130  0.51316419  0.93546236    -0.06300
C1208       C  0.64076844  0.16562619  0.92744866    -0.17500
C1209       C  0.62869351  0.17095586  0.91131915     0.10900
C1210       C  0.65397856  0.53498236  0.90340831    -0.06300
C1211       C  0.62989643  0.48554894  0.91128425    -0.17500
C1212       C  0.64211788  0.47477272  0.92705885     0.10900
S1213       S  0.64535663  0.24129741  0.90209559    -0.32500
S1214       S  0.60371095  0.41190426  0.93560850    -0.32500
H1215       H  0.58423223  0.44476504  0.94866088     0.28900
H1216       H  0.64830542  0.21849590  0.88679942     0.28900
H1217       H  0.66035625  0.20345517  0.93356628     0.19500
H1218       H  0.59811015  0.45677152  0.90526343     0.19500
C1219       C  0.89119341  0.39562384  0.04609150    -0.06300
C1220       C  0.84909846  0.35424533  0.04031688    -0.17500
C1221       C  0.83092089  0.35472555  0.02448487     0.10900
C1222       C  0.85655622  0.39709873  0.01397636    -0.06300
C1223       C  0.85170023  0.05402742  0.02091340    -0.17500
C1224       C  0.87038404  0.04779793  0.03644774     0.10900
S1225       S  0.77580654  0.30028686  0.01813576    -0.32500
S1226       S  0.92505653  0.10077826  0.04368004    -0.32500
H1227       H  0.90685675  0.09898835  0.05934563     0.28900
H1228       H  0.76159381  0.27742811  0.03296565     0.28900
H1229       H  0.83202605  0.32032979  0.04814512     0.19500
H1230       H  0.86787327  0.09221383  0.01438821     0.19500
C1231       C  0.67351516  0.52459310  0.04727098    -0.06300
C1232       C  0.60992161  0.16641514  0.04084282    -0.17500
C1233       C  0.62223458  0.16713719  0.02463992     0.10900
C1234       C  0.70116672  0.51098926  0.01522921    -0.06300
C1235       C  0.69908764  0.46153261  0.02525265    -0.17500
C1236       C  0.68684910  0.46774025  0.04113966     0.10900
S1237       S  0.59611518  0.22719842  0.01259138    -0.32500
S1238       S  0.67909665  0.40030550  0.05240591    -0.32500
H1239       H  0.69228156  0.42688934  0.06688313     0.28900
H1240       H  0.56815248  0.25946043  0.02460825     0.28900
H1241       H  0.58261351  0.20109057  0.04587031     0.19500
H1242       H  0.70624944  0.41712572  0.02062470     0.19500
N1243       N  0.47946261  0.04442456  0.11417044    -0.36800
N1244       N  0.93090179  0.41505414  0.08907495    -0.57400
N1245       N  0.02555650  0.38343869  0.06818880    -0.36800
N1246       N  0.61394664  0.51804412  0.08837231    -0.57400
C1247       C  0.93297692  0.99784563  0.12180975     0.26800
C1248       C  0.53058372  0.02966569  0.12191465     0.26800
C1249       C  0.97756991  0.36054546  0.06073731     0.26800
C1250       C  0.56917245  0.52214788  0.05582886     0.26800
C1251       C  0.85902541  0.01462120  0.10037578     0.35400
C1252       C  0.89906371  0.41088398  0.07560377     0.35400
C1253       C  0.60411461  0.07896535  0.10378125     0.35400
C1254       C  0.64816871  0.53318349  0.07593311     0.35400
C1255       C  0.95004446  0.99209794  0.13730483    -0.22100
C1256       C  0.51408683  0.99833310  0.13522886    -0.22100
C1257       C  0.99543400  0.32118942  0.04919042    -0.22100
C1258       C  0.55059746  0.50809902  0.04078670    -0.22100
C1259       C  0.81061389  0.04453815  0.09429484    -0.23200
C1260       C  0.84205529  0.43167608  0.07795062    -0.23100
C1261       C  0.65633295  0.11054663  0.10046084    -0.23200
C1262       C  0.70553603  0.54678973  0.08070162    -0.23100
C1263       C  0.87291251  0.00954699  0.11648196    -0.18500
C1264       C  0.59087420  0.04830561  0.11793582    -0.18500
C1265       C  0.62949700  0.52860887  0.06024502    -0.18500
C1266       C  0.92080268  0.38580231  0.06151431    -0.18500
H1267       H  0.92126210  0.99377230  0.14743917     0.14400
H1268       H  0.54352929  0.98146779  0.14414307     0.14400
H1269       H  0.96747643  0.29851635  0.04068396     0.14400
H1270       H  0.57738270  0.49903263  0.03058211     0.14400
H1271       H  0.77786851  0.06943593  0.10075132     0.12700
H1272       H  0.80613725  0.43282217  0.06953362     0.12700
H1273       H  0.69288861  0.12059296  0.10826902     0.12700
H1274       H  0.74315218  0.55899978  0.07341754     0.12700
H1275       H  0.47711029  0.07306277  0.10470824     0.26000
H1276       H  0.02546972  0.42201220  0.07497234     0.26000
O1277       O  0.85027341  0.45677971  0.99085984    -0.73100
O1278       O  0.74838089  0.52929614  0.95725356    -0.74100
O1279       O  0.75433854  0.53113330  0.99158198    -0.62700
O1280       O  0.84548270  0.45564609  0.95673085    -0.71200
O1281       O  0.73544832  0.99467291  0.95807274    -0.70700
O1282       O  0.64435354  0.06023659  0.99448892    -0.62000
O1283       O  0.63367920  0.06016822  0.96024761    -0.74500
O1284       O  0.74579510  0.99441767  0.99212850    -0.73300
Cu1285     Cu  0.80167090  0.49569286  0.97406688     1.04600
Cu1286     Cu  0.68793480  0.02485252  0.97628630     1.04300
C1287       C  0.78550366  0.02828071  0.99829395     0.93000
C1288       C  0.64914754  0.10616276  0.95240825     0.92200
C1289       C  0.66052097  0.10978489  0.00073238     0.84300
C1290       C  0.77298546  0.02907109  0.95127814     0.90600
O1291       O  0.78886765  0.95508723  0.16475785    -0.73100
O1292       O  0.65842298  0.98291323  0.13210097    -0.74100
O1293       O  0.79110090  0.96646703  0.13135309    -0.62700
O1294       O  0.66397043  0.96975066  0.16530592    -0.71200
O1295       O  0.71987522  0.53711396  0.16596989    -0.70700
O1296       O  0.84705737  0.51549874  0.13195151    -0.62000
O1297       O  0.71539110  0.53732017  0.13234960    -0.74500
O1298       O  0.84269109  0.51713724  0.16540945    -0.73300
Cu1299     Cu  0.72516069  0.96533174  0.14809523     1.04600
Cu1300     Cu  0.78177687  0.53011612  0.14868586     1.04300
C1301       C  0.81346516  0.99993854  0.17162836     0.93000
C1302       C  0.64278795  0.03641328  0.12886383     0.92200
C1303       C  0.82109651  0.01369763  0.12789616     0.86100
C1304       C  0.65193844  0.01812377  0.17252483     0.90600
N1305       N  0.46606360  0.11603255  0.88194338    -0.36800
N1306       N  0.55925890  0.09273828  0.86053709    -0.57400
N1307       N  0.46680487  0.04560703  0.83840097    -0.36800
N1308       N  0.87251402  0.00262334  0.86114711    -0.57400
C1309       C  0.51140562  0.14626673  0.88877606     0.26800
C1310       C  0.91891723  0.00750098  0.89305516     0.26800
C1311       C  0.51643342  0.04719781  0.82912626     0.26800
C1312       C  0.91617934  0.01389138  0.82868684     0.26800
C1313       C  0.59253200  0.10186715  0.87365843     0.35400
C1314       C  0.59536474  0.06846041  0.84962661     0.35400
C1315       C  0.83835342  0.99238276  0.87390549     0.35400
C1316       C  0.83748668  0.99264491  0.84857630     0.35400
C1317       C  0.48924982  0.18413531  0.90016974    -0.22100
C1318       C  0.94082361  0.02765505  0.90730650    -0.22100
C1319       C  0.49769482  0.04307380  0.81369453    -0.22100
C1320       C  0.93721567  0.03774413  0.81479367    -0.22100
C1321       C  0.65054758  0.08470293  0.87098133    -0.23200
C1322       C  0.65264926  0.06518427  0.85566449    -0.23100
C1323       C  0.78121448  0.97595393  0.86954657    -0.23200
C1324       C  0.78088078  0.97517458  0.85346697    -0.23100
C1325       C  0.57107766  0.12855637  0.88765104    -0.18500
C1326       C  0.85802000  0.00240987  0.88930990    -0.18500
C1327       C  0.85426418  0.00656401  0.83303984    -0.18500
C1328       C  0.57807402  0.05113393  0.83416984    -0.18500
H1329       H  0.51431332  0.21167832  0.90828718     0.14400
H1330       H  0.91632655  0.04666826  0.91695687     0.14400
H1331       H  0.52580873  0.04270876  0.80342256     0.14400
H1332       H  0.91075067  0.05576857  0.80540693     0.14400
H1333       H  0.68765265  0.08802208  0.87900890     0.12700
H1334       H  0.69201241  0.05118950  0.84953601     0.12700
H1335       H  0.74382892  0.96599608  0.87713137     0.12700
H1336       H  0.74285547  0.96380430  0.84625126     0.12700
H1337       H  0.47023939  0.07679850  0.87547476     0.26000
H1338       H  0.46753627  0.04260748  0.85050967     0.26000
O1339       O  0.77236854  0.96828383  0.81748060    -0.73100
O1340       O  0.64405807  0.98064957  0.78441568    -0.74100
O1341       O  0.76871008  0.96377404  0.78418373    -0.62700
O1342       O  0.64089095  0.98759261  0.81790703    -0.71200
O1343       O  0.70634419  0.54306872  0.81770677    -0.70700
O1344       O  0.83628872  0.53613234  0.78489456    -0.62000
O1345       O  0.71142825  0.55207602  0.78399653    -0.74500
O1346       O  0.83792432  0.52441206  0.81794823    -0.73300
Cu1347     Cu  0.70593734  0.97179443  0.80120001     1.04600
Cu1348     Cu  0.77325970  0.54223400  0.80138229     1.04300
C1349       C  0.80397851  0.01391634  0.82144306     0.93000
C1350       C  0.63077270  0.03089564  0.77847507     0.92200
C1351       C  0.79352106  0.00971517  0.77799487     0.84300
C1352       C  0.62797052  0.04050943  0.82254588     0.90600
O1353       O  0.93264854  0.78693583  0.63322380    -0.73100
O1354       O  0.95491200  0.66097631  0.66626873    -0.74100
O1355       O  0.93468717  0.78424780  0.66706133    -0.62700
O1356       O  0.95531162  0.65607715  0.63299531    -0.71200
O1357       O  0.54762982  0.73260504  0.63277311    -0.70700
O1358       O  0.53364368  0.85870851  0.66687266    -0.62000
O1359       O  0.55268504  0.73512446  0.66649807    -0.74500
O1360       O  0.52689244  0.86368972  0.63367707    -0.73300
Cu1361     Cu  0.94108265  0.72166704  0.64969459     1.04600
Cu1362     Cu  0.54352050  0.79792070  0.64970854     1.04300
C1363       C  0.97677932  0.81872250  0.62839380     0.93000
C1364       C  0.00666591  0.65096764  0.67180840     0.92200
C1365       C  0.98084813  0.80930654  0.67319111     0.84300
C1366       C  0.00775236  0.64362471  0.62800818     0.90600
N1367       N  0.01080176  0.48138052  0.61215322    -0.36800
N1368       N  0.05708845  0.57128352  0.59016354    -0.57400
N1369       N  0.07698239  0.47571298  0.56829647    -0.36800
N1370       N  0.94778856  0.88342949  0.58848471    -0.57400
C1371       C  0.01300107  0.53102971  0.62152332     0.26800
C1372       C  0.97587327  0.92955173  0.62065464     0.26800
C1373       C  0.10745105  0.52106983  0.56169939     0.26800
C1374       C  0.93852973  0.92648197  0.55609684     0.26800
C1375       C  0.03412182  0.60869324  0.60100018     0.35400
C1376       C  0.06447082  0.60322774  0.57683342     0.35400
C1377       C  0.94701739  0.84882695  0.60138839     0.35400
C1378       C  0.93305884  0.84773245  0.57620104     0.35400
C1379       C  0.00936728  0.51220967  0.63692224    -0.22100
C1380       C  0.00141433  0.95018179  0.63445457    -0.22100
C1381       C  0.14442228  0.49927270  0.55006446    -0.22100
C1382       C  0.95313727  0.94589864  0.54120836    -0.22100
C1383       C  0.03011736  0.66543942  0.59469642    -0.23200
C1384       C  0.04770569  0.66154541  0.57928820    -0.23100
C1385       C  0.93110359  0.79078996  0.59716281    -0.23200
C1386       C  0.92297223  0.79002557  0.58121843    -0.23100
C1387       C  0.01756997  0.59266203  0.61652098    -0.18500
C1388       C  0.96629623  0.86748765  0.61654068    -0.18500
C1389       C  0.93501459  0.86594104  0.56041850    -0.18500
C1390       C  0.08891890  0.58042839  0.56276890    -0.18500
H1391       H  0.00954617  0.54028588  0.64723996     0.14400
H1392       H  0.01887099  0.92340188  0.64384579     0.14400
H1393       H  0.17141532  0.52495611  0.54199853     0.14400
H1394       H  0.96592850  0.91957109  0.53116827     0.14400
H1395       H  0.01625065  0.70549501  0.60061238     0.12700
H1396       H  0.04994682  0.69762344  0.57099407     0.12700
H1397       H  0.92658414  0.75247127  0.60470100     0.12700
H1398       H  0.91204020  0.75137254  0.57410520     0.12700
H1399       H  0.00736030  0.48183398  0.60006078     0.26000
H1400       H  0.03822627  0.48047182  0.57487332     0.26000
O1401       O  0.51970233  0.86059910  0.46012509    -0.73100
O1402       O  0.58053797  0.74932060  0.49295453    -0.74100
O1403       O  0.57951365  0.75504882  0.45860269    -0.62700
O1404       O  0.52047580  0.85477893  0.49435470    -0.71200
O1405       O  0.93390580  0.73614036  0.49180055    -0.70700
O1406       O  0.00886128  0.64327851  0.45676202    -0.62000
O1407       O  0.00571504  0.63807386  0.49111581    -0.74500
O1408       O  0.93791857  0.74083629  0.45746574    -0.73300
Cu1409     Cu  0.55299949  0.80665962  0.47654335     1.04600
Cu1410     Cu  0.96906492  0.68759029  0.47426164     1.04300
C1411       C  0.97105777  0.78124417  0.45141278     0.93000
C1412       C  0.05293555  0.65409525  0.49842090     0.92200
C1413       C  0.05739354  0.66205941  0.45052773     0.84300
C1414       C  0.96636474  0.77501233  0.49883095     0.90600
C1415       C  0.96394312  0.98429389  0.72525807    -0.02700
N1416       N  0.05257149  0.46485389  0.33652838    -0.36800
N1417       N  0.96629661  0.86870388  0.35950616    -0.57400
N1418       N  0.07682589  0.46638292  0.38396054    -0.36800
N1419       N  0.06493896  0.55810201  0.36040315    -0.57400
C1420       C  0.00060883  0.91445485  0.32778025     0.26800
C1421       C  0.03587476  0.51413505  0.32830612     0.26800
C1422       C  0.91308754  0.91011375  0.38828663     0.26800
C1423       C  0.06517385  0.51519136  0.39272137     0.26800
C1424       C  0.99125675  0.83480076  0.34824946     0.35400
C1425       C  0.96782722  0.83664410  0.37289958     0.35400
C1426       C  0.07068450  0.59198153  0.34744631     0.35400
C1427       C  0.08367151  0.59191898  0.37266471     0.35400
C1428       C  0.00447599  0.93436439  0.31249337    -0.22100
C1429       C  0.00916628  0.49471034  0.31454316    -0.22100
C1430       C  0.87137829  0.92390974  0.39964492    -0.22100
C1431       C  0.04447546  0.49810696  0.40731160    -0.22100
C1432       C  0.00619347  0.77992221  0.35442194    -0.23200
C1433       C  0.99319291  0.78177437  0.37016571    -0.23100
C1434       C  0.09449945  0.64732665  0.35155393    -0.23200
C1435       C  0.10194501  0.64754787  0.36754863    -0.23100
C1436       C  0.00025110  0.85236869  0.33248889    -0.18500
C1437       C  0.04806512  0.57573853  0.33246213    -0.18500
C1438       C  0.07743279  0.57468105  0.38844693    -0.18500
C1439       C  0.94338660  0.85607324  0.38724591    -0.18500
H1440       H  0.00681470  0.90700451  0.30206709     0.14400
H1441       H  0.99220195  0.52231856  0.30525498     0.14400
H1442       H  0.85049485  0.89396816  0.40792411     0.14400
H1443       H  0.03235795  0.52592157  0.41711591     0.14400
H1444       H  0.02501681  0.74288987  0.34818312     0.12700
H1445       H  0.00002913  0.74654865  0.37851853     0.12700
H1446       H  0.10501868  0.68408205  0.34387274     0.12700
H1447       H  0.11785621  0.68458518  0.37461899     0.12700
H1448       H  0.07899400  0.46534333  0.34648047     0.26000
H1449       H  0.09907200  0.46576075  0.37329262     0.26000
O1450       O  0.95407598  0.76382284  0.28284718    -0.73100
O1451       O  0.98252350  0.63912624  0.31708989    -0.74100
O1452       O  0.96131807  0.77054470  0.31671820    -0.62700
O1453       O  0.97293797  0.63985652  0.28374121    -0.71200
O1454       O  0.57691975  0.71623054  0.28340911    -0.70700
O1455       O  0.56194762  0.84627640  0.31731037    -0.62000
O1456       O  0.57973996  0.71410754  0.31717198    -0.74500
O1457       O  0.56089131  0.84081674  0.28386618    -0.73300
Cu1458     Cu  0.96442776  0.70297339  0.30035678     1.04600
Cu1459     Cu  0.57326078  0.77975835  0.30062202     1.04300
C1460       C  0.99913123  0.78851294  0.27614692     0.93000
C1461       C  0.03604998  0.62586286  0.32099809     0.92200
C1462       C  0.00709130  0.80206073  0.32066146     0.84300
C1463       C  0.02255697  0.62928203  0.27697320     0.90600
C1464       C  0.97706758  0.96344187  0.22514939    -0.02700
C1465       C  0.99146654  0.82553498  0.26168985    -0.06300
C1466       C  0.93592209  0.85041506  0.25833011    -0.17500
C1467       C  0.92743321  0.88887213  0.24550582     0.10900
C1468       C  0.97628596  0.90485416  0.23546022    -0.06300
C1469       C  0.54022121  0.94008746  0.24086158    -0.17500
C1470       C  0.54950648  0.90181363  0.25355141     0.10900
S1471       S  0.85257603  0.91433787  0.24218353    -0.32500
S1472       S  0.62111478  0.86597756  0.25531023    -0.32500
H1473       H  0.65201509  0.89988069  0.24407156     0.28900
H1474       H  0.82915630  0.90083924  0.25700198     0.28900
H1475       H  0.89878788  0.84017698  0.26596949     0.19500
H1476       H  0.57844778  0.95063809  0.23375229     0.19500
C1477       C  0.01512329  0.50823909  0.23633096    -0.06300
C1478       C  0.57990473  0.58173749  0.24589956    -0.17500
C1479       C  0.58109819  0.61657401  0.25957532     0.10900
C1480       C  0.02327044  0.58691954  0.26325544    -0.06300
C1481       C  0.97128034  0.55376756  0.25995505    -0.17500
C1482       C  0.96703930  0.51374990  0.24728580     0.10900
S1483       S  0.64409375  0.60800356  0.27237938    -0.32500
S1484       S  0.89897562  0.47007411  0.24615021    -0.32500
H1485       H  0.88416629  0.47286093  0.26210030     0.28900
H1486       H  0.60964651  0.60593310  0.28611332     0.28900
H1487       H  0.61764200  0.55316989  0.24374914     0.19500
H1488       H  0.93324851  0.55814317  0.26763812     0.19500
C1489       C  0.95986895  0.80228441  0.43507866    -0.06300
C1490       C  0.50827967  0.89927527  0.42946602    -0.17500
C1491       C  0.50824058  0.91031904  0.41340783     0.10900
C1492       C  0.95673558  0.82699430  0.40244027    -0.06300
C1493       C  0.91281711  0.79084376  0.40936933    -0.17500
C1494       C  0.91288333  0.77953744  0.42549828     0.10900
S1495       S  0.56822499  0.95646829  0.40590592    -0.32500
S1496       S  0.84972295  0.73846068  0.43301161    -0.32500
H1497       H  0.84171655  0.77722612  0.44580259     0.28900
H1498       H  0.56578841  0.93598507  0.39043127     0.28900
H1499       H  0.54600985  0.91523936  0.43625674     0.19500
H1500       H  0.87545930  0.77535399  0.40236012     0.19500
C1501       C  0.06823352  0.64814343  0.43375155    -0.06300
C1502       C  0.01909763  0.65227759  0.42363085    -0.17500
C1503       C  0.02358968  0.63899275  0.40771034     0.10900
C1504       C  0.07830546  0.61882386  0.40157714    -0.06300
C1505       C  0.60621172  0.67448065  0.41233143    -0.17500
C1506       C  0.60451972  0.68986302  0.42829518     0.10900
S1507       S  0.95529419  0.63824361  0.39656606    -0.32500
S1508       S  0.67170227  0.68661643  0.43982546    -0.32500
H1509       H  0.71107641  0.67725232  0.42728345     0.28900
H1510       H  0.98173744  0.64105453  0.38175579     0.28900
H1511       H  0.97595400  0.66448430  0.42826765     0.19500
H1512       H  0.64696329  0.65741618  0.40731970     0.19500
C1513       C  0.95328293  0.79196551  0.51524756    -0.06300
C1514       C  0.50803633  0.85432480  0.52739772    -0.17500
C1515       C  0.50248011  0.86704329  0.54330519     0.10900
C1516       C  0.93836890  0.82210855  0.54724375    -0.06300
C1517       C  0.88884589  0.81785168  0.53710753    -0.17500
C1518       C  0.89577371  0.80363425  0.52117270     0.10900
S1519       S  0.56944326  0.86593465  0.55495713    -0.32500
S1520       S  0.83087717  0.80708476  0.50882332    -0.32500
H1521       H  0.86139933  0.82819476  0.49556689     0.28900
H1522       H  0.54088286  0.86093403  0.56947700     0.28900
H1523       H  0.55111175  0.84064580  0.52299964     0.19500
H1524       H  0.84562047  0.83223532  0.54123142     0.19500
C1525       C  0.07813616  0.60977033  0.54738904    -0.06300
C1526       C  0.02691280  0.59062597  0.53935657    -0.17500
C1527       C  0.01974862  0.59994027  0.52333318     0.10900
C1528       C  0.06388282  0.63209552  0.51474875    -0.06300
C1529       C  0.60444275  0.71574664  0.52384210    -0.17500
C1530       C  0.61202659  0.70628629  0.53991023     0.10900
S1531       S  0.95311546  0.56795789  0.51484219    -0.32500
S1532       S  0.67740647  0.73785594  0.54916483    -0.32500
H1533       H  0.65444773  0.73758093  0.56443439     0.28900
H1534       H  0.98456117  0.53776535  0.50303698     0.28900
H1535       H  0.99357288  0.56431991  0.54551263     0.19500
H1536       H  0.63670820  0.74382432  0.51787225     0.19500
C1537       C  0.97492021  0.84704621  0.68771707    -0.06300
C1538       C  0.92162810  0.87709944  0.69046754    -0.17500
C1539       C  0.91434492  0.91614965  0.70328925     0.10900
C1540       C  0.96200492  0.92689830  0.71421964    -0.06300
C1541       C  0.51685929  0.95839828  0.71031849    -0.17500
C1542       C  0.52407942  0.91779888  0.69795943     0.10900
S1543       S  0.84286131  0.95138697  0.70511986    -0.32500
S1544       S  0.59317342  0.87756724  0.69728826    -0.32500
H1545       H  0.56573874  0.82214733  0.69394679     0.28900
H1546       H  0.86133826  0.44610510  0.69345093     0.28900
H1547       H  0.88554412  0.87089006  0.68221616     0.19500
H1548       H  0.55537948  0.96623755  0.71761420     0.19500
C1549       C  0.01176770  0.61150228  0.68563846    -0.06300
C1550       C  0.96539988  0.61223096  0.69657298    -0.17500
C1551       C  0.96472102  0.57583875  0.70989078     0.10900
C1552       C  0.01343884  0.53591798  0.71265252    -0.06300
C1553       C  0.56667318  0.60678488  0.70471268    -0.17500
C1554       C  0.56563255  0.64160959  0.69111552     0.10900
S1555       S  0.89959148  0.58457873  0.72216130    -0.32500
S1556       S  0.62853625  0.63949889  0.67794871    -0.32500
H1557       H  0.66876220  0.61309018  0.68836819     0.28900
H1558       H  0.86021345  0.60446251  0.71055790     0.28900
H1559       H  0.92891485  0.64258968  0.69467536     0.19500
H1560       H  0.60540636  0.57965562  0.70674521     0.19500
C1561       C  0.83623236  0.00302997  0.76462743    -0.06300
C1562       C  0.83812232  0.94869254  0.75639874    -0.17500
C1563       C  0.87689112  0.93944053  0.74361672     0.10900
C1564       C  0.91247215  0.98816469  0.73773150    -0.06300
C1565       C  0.96661319  0.53138111  0.74786613    -0.17500
C1566       C  0.93028901  0.53494638  0.76115120     0.10900
S1567       S  0.88255557  0.86318496  0.73670883    -0.32500
S1568       S  0.93260100  0.60320519  0.77254322    -0.32500
H1569       H  0.96463859  0.63851254  0.76181653     0.28900
H1570       H  0.85394582  0.83487258  0.74932661     0.28900
H1571       H  0.80956603  0.91238287  0.76024601     0.19500
H1572       H  0.99331041  0.56994719  0.74487433     0.19500
C1573       C  0.58865631  0.03376765  0.76481103    -0.06300
C1574       C  0.64385800  0.57209859  0.75612057    -0.17500
C1575       C  0.60652521  0.58358449  0.74316107     0.10900
C1576       C  0.51490137  0.04213069  0.73713660    -0.06300
C1577       C  0.52174287  0.98833343  0.74558837    -0.17500
C1578       C  0.55579908  0.98387399  0.75920530     0.10900
S1579       S  0.60067576  0.66099596  0.73736708    -0.32500
S1580       S  0.55149925  0.91337349  0.76921670    -0.32500
H1581       H  0.53855229  0.93967569  0.78377130     0.28900
H1582       H  0.63398610  0.68727229  0.74953903     0.28900
H1583       H  0.66872593  0.60857493  0.76139562     0.19500
H1584       H  0.49693931  0.94903412  0.74201478     0.19500
C1585       C  0.85441587  0.99087451  0.18529162    -0.06300
C1586       C  0.85967712  0.93350158  0.19168844    -0.17500
C1587       C  0.89581826  0.92177737  0.20481067     0.10900
C1588       C  0.92518433  0.97002677  0.21293138    -0.06300
C1589       C  0.92439942  0.49577046  0.21066357    -0.17500
C1590       C  0.88518539  0.50021050  0.19795814     0.10900
S1591       S  0.90425594  0.84397641  0.20989930    -0.32500
S1592       S  0.82841901  0.55694247  0.19826054    -0.32500
H1593       H  0.83890621  0.57780126  0.21353872     0.28900
H1594       H  0.88484529  0.81916820  0.19563766     0.28900
H1595       H  0.83566948  0.89687816  0.18619923     0.19500
H1596       H  0.92339922  0.53113050  0.21919592     0.19500
C1597       C  0.61114003  0.01770292  0.18653395    -0.06300
C1598       C  0.65130664  0.55336384  0.19357947    -0.17500
C1599       C  0.61476353  0.56322571  0.20678803     0.10900
C1600       C  0.53460561  0.02261079  0.21377055    -0.06300
C1601       C  0.54714467  0.96871097  0.20576694    -0.17500
C1602       C  0.58556235  0.96505729  0.19286633     0.10900
S1603       S  0.60868867  0.64010767  0.21317665    -0.32500
S1604       S  0.59934944  0.89178574  0.18476514    -0.32500
H1605       H  0.58089143  0.85864945  0.19786037     0.28900
H1606       H  0.62921304  0.66746920  0.19940603     0.28900
H1607       H  0.67528245  0.59077665  0.18854660     0.19500
H1608       H  0.52562070  0.92811012  0.20955855     0.19500
C1609       C  0.78908770  0.01825355  0.93475086    -0.06300
C1610       C  0.82898820  0.45133780  0.92399172    -0.17500
C1611       C  0.84202812  0.45222495  0.90808901     0.10900
C1612       C  0.81593601  0.00588809  0.90265961    -0.06300
C1613       C  0.81163218  0.95548191  0.91233595    -0.17500
C1614       C  0.79870842  0.96105975  0.92830384     0.10900
S1615       S  0.83754295  0.52350312  0.89848590    -0.32500
S1616       S  0.80062433  0.89447421  0.93997910    -0.32500
H1617       H  0.82564259  0.92242796  0.95321716     0.28900
H1618       H  0.83389069  0.50157880  0.88318647     0.28900
H1619       H  0.81341542  0.49206812  0.92940051     0.19500
H1620       H  0.82459579  0.91234332  0.90777335     0.19500
C1621       C  0.62856894  0.11238199  0.93569310    -0.06300
C1622       C  0.70600510  0.56281403  0.92743607    -0.17500
C1623       C  0.69243891  0.57413183  0.91167306     0.10900
C1624       C  0.60312642  0.12236887  0.90297473    -0.06300
C1625       C  0.59314626  0.06884367  0.91096980    -0.17500
C1626       C  0.60587546  0.06273411  0.92694020     0.10900
S1627       S  0.72375324  0.64036417  0.90288719    -0.32500
S1628       S  0.59266180  0.98999901  0.93546108    -0.32500
H1629       H  0.59027922  0.95736998  0.92139466     0.28900
H1630       H  0.72124004  0.61930610  0.88741792     0.28900
H1631       H  0.73681562  0.59277575  0.93337143     0.19500
H1632       H  0.57223240  0.03203250  0.90472076     0.19500
C1633       C  0.84864181  0.99978727  0.04555138    -0.06300
C1634       C  0.80923607  0.95857063  0.03862215    -0.17500
C1635       C  0.79255105  0.96311868  0.02288256     0.10900
C1636       C  0.81245324  0.01259112  0.01379162    -0.06300
C1637       C  0.89950005  0.43739660  0.01995283    -0.17500
C1638       C  0.91602187  0.43783837  0.03566854     0.10900
S1639       S  0.74713249  0.90289699  0.01526783    -0.32500
S1640       S  0.97142751  0.49249267  0.04160354    -0.32500
H1641       H  0.94974855  0.49976763  0.05687812     0.28900
H1642       H  0.78248746  0.89568540  0.00182163     0.28900
H1643       H  0.79484239  0.91990143  0.04524874     0.19500
H1644       H  0.91970895  0.47057855  0.01239941     0.19500
C1645       C  0.62491524  0.11699897  0.05023376    -0.06300
C1646       C  0.68118653  0.57491666  0.03766062    -0.17500
C1647       C  0.69589704  0.56875665  0.02172947     0.10900
C1648       C  0.65016500  0.11767568  0.01775566    -0.06300
C1649       C  0.67003409  0.07154836  0.02741794    -0.17500
C1650       C  0.65862190  0.07082157  0.04344394     0.10900
S1651       S  0.70210358  0.63429570  0.00965349    -0.32500
S1652       S  0.67608048  0.00300843  0.05365750    -0.32500
H1653       H  0.68015770  0.02820492  0.06858481     0.28900
H1654       H  0.70274477  0.67606771  0.02197245     0.28900
H1655       H  0.66995187  0.61842364  0.04227824     0.19500
H1656       H  0.69169333  0.03347541  0.02223313     0.19500
loop_ 
_geom_bond_atom_site_label_1 
_geom_bond_atom_site_label_2 
_geom_bond_distance 
_geom_bond_site_symmetry_2 
_ccdc_geom_bond_type 
N1            C6   1.373       .  A
N1          C833   1.372   1_455  A
N1           H33   1.035       .  S
N2           C10   1.354       .  A
N2          C423   1.351       .  A
N3            C7   1.349       .  A
N3          C836   1.349       .  A
N3           H34   1.042       .  S
N4           C12   1.359       .  A
N4          C425   1.352       .  A
C5          N829   1.368       .  A
C5           C13   1.388       .  A
C5           C21   1.446       .  A
C6           C22   1.454       .  A
C6           C14   1.389       .  A
C7           C15   1.389       .  A
C7           C24   1.406       .  A
C8          N831   1.349   1_455  A
C8           C23   1.406       .  A
C8           C16   1.387   1_455  A
C9          N416   1.352       .  A
C9           C21   1.423       .  A
C9           C17   1.390       .  A
C10          C24   1.410       .  A
C10          C18   1.381       .  A
C11         N418   1.352       .  A
C11          C19   1.388       .  A
C11          C22   1.428       .  A
C12          C20   1.381       .  A
C12          C23   1.417       .  A
C13         C842   1.391       .  A
C13          H25   1.082       .  S
C14         C841   1.393   1_455  A
C14          H26   1.083       .  S
C15         C844   1.358       .  A
C15          H27   1.080       .  S
C16         C843   1.367       .  A
C16          H28   1.080   1_655  S
C17         C432   1.374       .  A
C17          H29   1.080       .  S
C18         C431   1.378       .  A
C18          H30   1.083       .  S
C19         C434   1.381       .  A
C19          H31   1.077       .  S
C20         C433   1.378       .  A
C20          H32   1.083       .  S
C21          C61   1.514       .  S
C22          C60   1.525       .  S
C23         C817   1.495       .  S
C24         C805   1.486       .  S
O35         Cu43   2.002       .  S
O35         C459   1.278       .  A
O36         Cu43   1.998       .  S
O36         C460   1.278   1_545  A
O37         Cu43   1.996       .  S
O37         C461   1.275   1_545  A
O38         Cu43   1.998       .  S
O38         C462   1.277       .  A
O39         Cu44   2.008       .  S
O39          C48   1.278       .  A
O40         Cu44   2.026       .  S
O40          C47   1.281       .  A
O41         Cu44   2.008       .  S
O41          C46   1.277       .  A
O42         Cu44   1.997       .  S
O42          C45   1.276       .  A
Cu43       Cu458   2.360   1_545  S
Cu44       Cu457   2.359       .  S
C45         C394   1.485   1_556  S
C45         O449   1.278       .  A
C46         C379   1.487       .  S
C46         O450   1.280       .  A
C47         C406   1.509   1_556  S
C47         O451   1.278       .  A
C48         C367   1.499       .  S
C48         O452   1.280       .  A
O49         Cu57   2.024       .  S
O49          C59   1.280       .  A
O50         Cu57   2.071       .  S
O50          C60   1.285       .  A
O51         Cu57   2.064       .  S
O51          C61   1.284       .  A
O52         Cu57   2.034       .  S
O52          C62   1.280       .  A
O53         Cu58   2.006       .  S
O53         C476   1.279   1_545  A
O54         Cu58   2.051       .  S
O54         C475   1.283       .  A
O55         Cu58   2.048       .  S
O55         C474   1.281   1_545  A
O56         Cu58   2.013       .  S
O56         C473   1.277       .  A
Cu57       Cu472   2.362       .  S
Cu58       Cu471   2.362   1_545  S
C59         C343   1.498       .  S
C59         O470   1.280       .  A
C60         O469   1.284       .  A
C61         O468   1.282       .  A
C62         C355   1.497       .  S
C62         O467   1.278       .  A
N63          C67   1.350       .  A
N63         C896   1.350   1_455  A
N63          H95   1.041       .  S
N64          C71   1.354       .  A
N64          C72   1.351       .  A
N65          C69   1.369       .  A
N65         C898   1.368   1_455  A
N65          H96   1.038       .  S
N66          C73   1.358       .  A
N66          C74   1.351       .  A
C67          C75   1.389       .  A
C67          C83   1.409       .  A
C68         N891   1.345       .  A
C68          C84   1.402       .  A
C68          C76   1.386       .  A
C69          C77   1.388       .  A
C69          C86   1.448       .  A
C70         N893   1.369       .  A
C70          C85   1.449       .  A
C70          C78   1.389       .  A
C71          C83   1.409       .  A
C71          C79   1.380       .  A
C72          C86   1.421       .  A
C72          C80   1.390       .  A
C73          C81   1.382       .  A
C73          C84   1.418       .  A
C74          C82   1.386       .  A
C74          C85   1.423       .  A
C75         C904   1.360   1_455  A
C75          H87   1.079       .  S
C76         C903   1.374       .  A
C76          H88   1.082       .  S
C77         C906   1.393   1_455  A
C77          H89   1.082       .  S
C78         C905   1.392       .  A
C78          H90   1.082       .  S
C79          C80   1.377       .  A
C79          H91   1.082       .  S
C80          H92   1.080       .  S
C81          C82   1.381       .  A
C81          H93   1.082       .  S
C82          H94   1.075       .  S
C83         C382   1.486       .  S
C84         C370   1.494       .  S
C85         C107   1.518       .  S
C86         C110   1.518       .  S
O97        Cu105   2.061       .  S
O97         C107   1.282       .  A
O98        Cu105   2.025       .  S
O98         C108   1.279       .  A
O99        Cu105   2.008       .  S
O99         C109   1.279       .  A
O100       Cu105   2.052       .  S
O100        C110   1.284       .  A
O101       Cu106   2.050       .  S
O101        C524   1.281   1_545  A
O102       Cu106   2.015       .  S
O102        C523   1.277       .  A
O103       Cu106   2.036       .  S
O103        C522   1.282   1_545  A
O104       Cu106   2.076       .  S
O104        C521   1.286       .  A
Cu105      Cu520   2.362       .  S
Cu106      Cu519   2.361   1_545  S
C107        O518   1.285       .  A
C108        C331   1.501       .  S
C108        O517   1.281       .  A
C109        C319   1.495       .  S
C109        O516   1.279       .  A
C110        O515   1.283       .  A
O111       Cu119   2.069       .  S
O111        C121   1.284       .  A
O112       Cu119   2.033       .  S
O112        C122   1.281       .  A
O113       Cu119   2.001       .  S
O113        C123   1.278       .  A
O114       Cu119   2.039       .  S
O114        C124   1.282       .  A
O115       Cu120   2.076       .  S
O115        C952   1.285   1_455  A
O116       Cu120   2.045       .  S
O116        C951   1.281       .  A
O117       Cu120   2.015       .  S
O117        C950   1.277   1_455  A
O118       Cu120   2.058       .  S
O118        C949   1.284   1_455  A
Cu119      Cu948   2.361       .  S
Cu120      Cu947   2.359   1_455  S
C121        C146   1.513       .  S
C121        O946   1.281       .  A
C122        C307   1.502       .  S
C122        O945   1.277       .  A
C123        C295   1.496       .  S
C123        O944   1.278       .  A
C124        C145   1.508       .  S
C124        O943   1.282       .  A
N125        C129   1.367       .  A
N125        C544   1.367   1_545  A
N125        H157   1.039       .  S
N126        C133   1.348       .  A
N126        C134   1.352       .  A
N127        C131   1.348       .  A
N127        C546   1.348   1_545  A
N127        H158   1.041       .  S
N128        C135   1.350       .  A
N128        C136   1.359       .  A
C129        C137   1.389       .  A
C129        C145   1.445       .  A
C130        N539   1.367       .  A
C130        C146   1.446       .  A
C130        C138   1.389       .  A
C131        C139   1.388       .  A
C131        C148   1.406       .  A
C132        N541   1.345       .  A
C132        C147   1.401       .  A
C132        C140   1.385       .  A
C133        C145   1.417       .  A
C133        C141   1.390       .  A
C134        C148   1.405       .  A
C134        C142   1.380       .  A
C135        C143   1.386       .  A
C135        C146   1.421       .  A
C136        C144   1.381       .  A
C136        C147   1.418       .  A
C137        C552   1.393       .  A
C137        H149   1.082       .  S
C138        C551   1.391       .  A
C138        H150   1.082       .  S
C139        C554   1.362       .  A
C139        H151   1.080       .  S
C140        C553   1.374       .  A
C140        H152   1.082       .  S
C141        C142   1.376       .  A
C141        H153   1.080       .  S
C142        H154   1.082       .  S
C143        C144   1.381       .  A
C143        H155   1.075       .  S
C144        H156   1.080       .  S
C147        C274   1.496       .  S
C148        C283   1.481       .  S
O159       Cu167   2.006       .  S
O159        C997   1.277       .  A
O160       Cu167   2.001   1_655  S
O160        C998   1.279       .  A
O161       Cu167   2.005   1_655  S
O161        C999   1.277       .  A
O162       Cu167   2.010       .  S
O162       C1000   1.279       .  A
O163       Cu168   2.022       .  S
O163        C172   1.280       .  A
O164       Cu168   2.032       .  S
O164        C171   1.282       .  A
O165       Cu168   2.001       .  S
O165        C170   1.276       .  A
O166       Cu168   1.994       .  S
O166        C169   1.276       .  A
Cu167      Cu996   2.360   1_455  S
Cu168      Cu995   2.360       .  S
C169        C247   1.481       .  S
C169        O987   1.277       .  A
C170        C286   1.476       .  S
C170        O988   1.279       .  A
C171        C259   1.508       .  S
C171        O989   1.277       .  A
C172        C271   1.505       .  S
C172        O990   1.280       .  A
C173        C298   1.575       .  S
C173        C322   1.577       .  S
C173        C724   1.581       .  S
C173       C1162   1.587       .  S
N174        C179   1.368       .  A
N174        C592   1.372   1_545  A
N174        H206   1.037       .  S
N175        C182   1.350       .  A
N175        C183   1.354       .  A
N176        C181   1.347       .  A
N176        C594   1.343   1_545  A
N176        H207   1.041       .  S
N177        C184   1.350       .  A
N177        C185   1.360       .  A
C178        N588   1.366       .  A
C178        C186   1.389       .  A
C178        C194   1.444       .  A
C179        C195   1.450       .  A
C179        C187   1.389       .  A
C180        N590   1.348       .  A
C180        C188   1.389       .  A
C180        C197   1.410       .  A
C181        C196   1.400       .  A
C181        C189   1.386       .  A
C182        C194   1.419       .  A
C182        C190   1.390       .  A
C183        C197   1.408       .  A
C183        C191   1.381       .  A
C184        C192   1.389       .  A
C184        C195   1.426       .  A
C185        C193   1.380       .  A
C185        C196   1.418       .  A
C186        C601   1.392       .  A
C186        H198   1.082       .  S
C187        C600   1.392   1_545  A
C187        H199   1.082       .  S
C188        C603   1.361       .  A
C188        H200   1.079       .  S
C189        C602   1.368   1_545  A
C189        H201   1.080       .  S
C190        C191   1.375       .  A
C190        H202   1.080       .  S
C191        H203   1.082       .  S
C192        C193   1.381       .  A
C192        H204   1.077       .  S
C193        H205   1.083       .  S
C194        C220   1.509       .  S
C195        C219   1.514       .  S
C196        C262   1.498       .  S
C197        C250   1.483       .  S
O208       Cu216   2.010       .  S
O208        C218   1.279       .  A
O209       Cu216   2.050       .  S
O209        C219   1.282       .  A
O210       Cu216   2.058       .  S
O210        C220   1.283       .  A
O211       Cu216   2.031       .  S
O211        C221   1.281       .  A
O212       Cu217   2.003       .  S
O212       C1049   1.275       .  A
O213       Cu217   2.045       .  S
O213       C1048   1.282       .  A
O214       Cu217   2.076       .  S
O214       C1047   1.286       .  A
O215       Cu217   2.038       .  S
O215       C1046   1.281       .  A
Cu216     Cu1045   2.361       .  S
Cu217     Cu1044   2.363   1_455  S
C218        C223   1.498       .  S
C218       O1043   1.278       .  A
C219       O1042   1.283       .  A
C220       O1041   1.281       .  A
C221        C238   1.497       .  S
C221       O1040   1.276       .  A
C222        C226   1.577       .  S
C222        C346   1.585       .  S
C222        C649   1.588       .  S
C222       C1186   1.586       .  S
C223        C224   1.401       .  A
C223       C1056   1.415       .  A
C224        C225   1.402       .  A
C224        H233   1.082       .  S
C225        C226   1.434       .  A
C225        S229   1.806       .  S
C226       C1055   1.419       .  A
C227        C228   1.400       .  A
C227       C1054   1.425       .  A
C227        H234   1.082       .  S
C228       C1051   1.404       .  A
C228        S230   1.802       .  S
S229        H232   1.407       .  S
S230        H231   1.408       .  S
C235        C240   1.441       .  A
C235       C1064   1.421       .  A
C235        C636   1.580       .  S
C236        C237   1.395       .  A
C236       C1063   1.421   1_455  A
C236        H245   1.081   1_545  S
C237       C1066   1.411   1_455  A
C237        S241   1.803       .  S
C238        C239   1.404       .  A
C238       C1065   1.410       .  A
C239        C240   1.414       .  A
C239        H246   1.081       .  S
C240        S242   1.813       .  S
S241        H244   1.406       .  S
S242        H243   1.406       .  S
C247        C252   1.421       .  A
C247       C1076   1.404       .  A
C248        C249   1.404       .  A
C248       C1075   1.406       .  A
C248        H257   1.084       .  S
C249       C1078   1.414       .  A
C249        S253   1.802       .  S
C250        C251   1.397       .  A
C250       C1077   1.413       .  A
C251        C252   1.394       .  A
C251        H258   1.085       .  S
C252        S254   1.799       .  S
S253        H256   1.406       .  S
S254        H255   1.407       .  S
C259        C260   1.412       .  A
C259       C1092   1.426       .  A
C260        C261   1.409       .  A
C260        H269   1.083       .  S
C261        C262   1.412       .  A
C261        S265   1.803       .  S
C262       C1091   1.401       .  A
C263        C264   1.405       .  A
C263       C1090   1.404       .  A
C263        H270   1.083   1_655  S
C264       C1087   1.422       .  A
C264        S266   1.811   1_655  S
S265        H268   1.406       .  S
S266        H267   1.406       .  S
C271        C276   1.420       .  A
C271       C1100   1.415       .  A
C272        C273   1.406       .  A
C272       C1099   1.414       .  A
C272        H281   1.083       .  S
C273       C1102   1.410       .  A
C273        S277   1.804       .  S
C274        C275   1.403       .  A
C274       C1101   1.412       .  A
C275        C276   1.402       .  A
C275        H282   1.085       .  S
C276        S278   1.801       .  S
S277        H280   1.405       .  S
S278        H279   1.408       .  S
C283        C284   1.407       .  A
C283       C1116   1.409       .  A
C284        C285   1.404       .  A
C284        H293   1.084       .  S
C285        C286   1.411       .  A
C285        S289   1.801       .  S
C286       C1115   1.406       .  A
C287        C288   1.395       .  A
C287       C1114   1.406       .  A
C287        H294   1.083   1_655  S
C288       C1111   1.411       .  A
C288        S290   1.803   1_655  S
S289        H292   1.406       .  S
S290        H291   1.401       .  S
C295        C296   1.401       .  A
C295       C1128   1.415       .  A
C296        C297   1.401       .  A
C296        H305   1.082       .  S
C297        C298   1.435       .  A
C297        S301   1.807       .  S
C298       C1127   1.418       .  A
C299        C300   1.412       .  A
C299       C1126   1.420       .  A
C299        H306   1.080       .  S
C300       C1123   1.418       .  A
C300        S302   1.800       .  S
S301        H718   1.407       .  S
S302        H303   1.408       .  S
H304        S715   1.407       .  S
C307        C308   1.404       .  A
C307       C1140   1.411       .  A
C308        C309   1.411       .  A
C308        H317   1.084       .  S
C309        C310   1.444       .  A
C309        S313   1.812       .  S
C310       C1139   1.422       .  A
C310        C587   1.582       .  S
C311        C312   1.402       .  A
C311       C1138   1.426   1_455  A
C311        H318   1.080       .  S
C312       C1135   1.408   1_455  A
C312        S314   1.810       .  S
S313        H316   1.393       .  S
S314        H315   1.407       .  S
C319        C320   1.399       .  A
C319        C738   1.408       .  A
C320        C321   1.404       .  A
C320        H329   1.082       .  S
C321        C322   1.443       .  A
C321        S325   1.816       .  S
C322        C737   1.419       .  A
C323        C324   1.403       .  A
C323        C736   1.420       .  A
C323        H330   1.078       .  S
C324        C733   1.408       .  A
C324        S326   1.809       .  S
S325        H328   1.407       .  S
S326        H327   1.407       .  S
C331        C336   1.411       .  A
C331        C746   1.401       .  A
C332        C333   1.413       .  A
C332        C745   1.401   1_545  A
C332        H341   1.082       .  S
C333        C748   1.446   1_545  A
C333        S337   1.816       .  S
C334        C335   1.420       .  A
C334        C747   1.444       .  A
C334       C1001   1.587       .  S
C335        C336   1.404       .  A
C335        H342   1.078       .  S
C336        S338   1.802       .  S
S337        H340   1.406       .  S
S338        H339   1.409       .  S
C343        C344   1.399       .  A
C343        C762   1.408       .  A
C344        C345   1.409       .  A
C344        H353   1.083       .  S
C345        C346   1.446       .  A
C345        S349   1.815       .  S
C346        C761   1.420       .  A
C347        C348   1.402       .  A
C347        C760   1.417       .  A
C347        H354   1.075       .  S
C348        C757   1.409       .  A
C348        S350   1.810       .  S
S349        H352   1.407       .  S
S350        H351   1.407       .  S
C355        C360   1.414       .  A
C355        C770   1.399       .  A
C356        C357   1.405       .  A
C356        C769   1.401   1_545  A
C356        H365   1.082       .  S
C357        C772   1.442   1_545  A
C357        S361   1.818       .  S
C358        C359   1.419       .  A
C358        C771   1.434       .  A
C358       C1050   1.582       .  S
C359        C360   1.411       .  A
C359        H366   1.077       .  S
C360        S362   1.808       .  S
S361        H364   1.406       .  S
S362        H363   1.407       .  S
C367        C372   1.417       .  A
C367        C782   1.413       .  A
C368        C369   1.403       .  A
C368        C781   1.414       .  A
C368        H377   1.083       .  S
C369        C784   1.410       .  A
C369        S373   1.805       .  S
C370        C371   1.405       .  A
C370        C783   1.411       .  A
C371        C372   1.399       .  A
C371        H378   1.085       .  S
C372        S374   1.802       .  S
S373        H376   1.405       .  S
S374        H375   1.408       .  S
C379        C384   1.415       .  A
C379        C794   1.409       .  A
C380        C381   1.395       .  A
C380        C793   1.406   1_545  A
C380        H389   1.083       .  S
C381        C796   1.409   1_545  A
C381        S385   1.803       .  S
C382        C383   1.406       .  A
C382        C795   1.410       .  A
C383        C384   1.405       .  A
C383        H390   1.084       .  S
C384        S386   1.800       .  S
S385        H388   1.402       .  S
S386        H387   1.407       .  S
C391        C392   1.400       .  A
C391        C810   1.412       .  A
C391        C438   1.486       .  S
C392        C393   1.401       .  A
C392        H401   1.083       .  S
C393        C394   1.423       .  A
C393        S397   1.810       .  S
C394        C809   1.405       .  A
C395        C396   1.402       .  A
C395        C808   1.407       .  A
C395        H402   1.084       .  S
C396        C805   1.413       .  A
C396        S398   1.802       .  S
S397        H400   1.407       .  S
S398        H399   1.405       .  S
C403        C408   1.410       .  A
C403        C818   1.401       .  A
C403        C437   1.497       .  S
C404        C405   1.401       .  A
C404        C817   1.397       .  A
C404        H413   1.084   1_565  S
C405        C820   1.427       .  A
C405        S409   1.810   1_565  S
C406        C407   1.413       .  A
C406        C819   1.427       .  A
C407        C408   1.408       .  A
C407        H414   1.083       .  S
C408        S410   1.801       .  S
S409        H412   1.408       .  S
S410        H411   1.406       .  S
N415        C420   1.366   1_655  A
N415       C1247   1.370       .  A
N415        H447   1.040   1_565  S
N416        C424   1.355       .  A
N417       C1250   1.352       .  A
N417        C421   1.351       .  A
N417        H448   1.038       .  S
N418        C426   1.360       .  A
C419       N1243   1.369       .  A
C419        C427   1.388   1_545  A
C419        C435   1.449       .  A
C420        C436   1.449       .  A
C420        C428   1.389       .  A
C421        C429   1.388       .  A
C421        C438   1.410       .  A
C422       N1245   1.347       .  A
C422        C437   1.403       .  A
C422        C430   1.388       .  A
C423        C435   1.422       .  A
C423        C431   1.391       .  A
C424        C438   1.410       .  A
C424        C432   1.380       .  A
C425        C433   1.390       .  A
C425        C436   1.425       .  A
C426        C434   1.381       .  A
C426        C437   1.419       .  A
C427       C1256   1.394       .  A
C427        H439   1.082       .  S
C428       C1255   1.393   1_455  A
C428        H440   1.083       .  S
C429       C1258   1.357       .  A
C429        H441   1.080       .  S
C430       C1257   1.370   1_455  A
C430        H442   1.080       .  S
C431        H443   1.081       .  S
C432        H444   1.083       .  S
C433        H445   1.079       .  S
C434        H446   1.083       .  S
C435        C475   1.517       .  S
C436        C474   1.512       .  S
O449       Cu457   2.008       .  S
O450       Cu457   2.004       .  S
O451       Cu457   2.016       .  S
O452       Cu457   2.020       .  S
O453       Cu458   2.035       .  S
O453        C462   1.282   1_565  A
O454       Cu458   2.033       .  S
O454        C461   1.282       .  A
O455       Cu458   2.024       .  S
O455        C460   1.279       .  A
O456       Cu458   2.021       .  S
O456        C459   1.279   1_565  A
C459        C808   1.492   1_556  S
C460        C793   1.483       .  S
C461        C820   1.502   1_556  S
C462        C781   1.500       .  S
O463       Cu471   2.017       .  S
O463        C473   1.280   1_565  A
O464       Cu471   2.059       .  S
O464        C474   1.285       .  A
O465       Cu471   2.068       .  S
O465        C475   1.284   1_565  A
O466       Cu471   2.034       .  S
O466        C476   1.280       .  A
O467       Cu472   2.003       .  S
O468       Cu472   2.039       .  S
O469       Cu472   2.075       .  S
O470       Cu472   2.030       .  S
C473        C757   1.495       .  S
C476        C769   1.499       .  S
N477       C1310   1.349   1_565  A
N477        C481   1.349   1_655  A
N477        H509   1.041       .  S
N478        C485   1.355       .  A
N478        C486   1.350       .  A
N479       C1312   1.368   1_565  A
N479        C483   1.367   1_665  A
N479        H510   1.039       .  S
N480        C487   1.356       .  A
N480        C488   1.352       .  A
C481        C489   1.388   1_565  A
C481        C497   1.407       .  A
C482       N1305   1.343       .  A
C482        C498   1.401       .  A
C482        C490   1.386       .  A
C483        C491   1.390   1_455  A
C483        C500   1.449   1_545  A
C484       N1307   1.373       .  A
C484        C499   1.451       .  A
C484        C492   1.388       .  A
C485        C497   1.413       .  A
C485        C493   1.381       .  A
C486        C500   1.423       .  A
C486        C494   1.391       .  A
C487        C495   1.383       .  A
C487        C498   1.418       .  A
C488        C496   1.386       .  A
C488        C499   1.421       .  A
C489       C1318   1.365   1_455  A
C489        H501   1.081       .  S
C490       C1317   1.372       .  A
C490        H502   1.081       .  S
C491       C1320   1.393       .  A
C491        H503   1.082   1_655  S
C492       C1319   1.392       .  A
C492        H504   1.082       .  S
C493        C494   1.379       .  A
C493        H505   1.082       .  S
C494        H506   1.080       .  S
C495        C496   1.383       .  A
C495        H507   1.081       .  S
C496        H508   1.079   1_545  S
C497        C796   1.489       .  S
C498        C784   1.490       .  S
C499        C521   1.528       .  S
C500        C524   1.515       .  S
O511       Cu519   2.080       .  S
O511        C521   1.285   1_565  A
O512       Cu519   2.040       .  S
O512        C522   1.280       .  A
O513       Cu519   2.016       .  S
O513        C523   1.280   1_565  A
O514       Cu519   2.055       .  S
O514        C524   1.284       .  A
O515       Cu520   2.065       .  S
O516       Cu520   2.030       .  S
O517       Cu520   2.031       .  S
O518       Cu520   2.067       .  S
C522        C745   1.507       .  S
C523        C733   1.493       .  S
O525       Cu533   2.047       .  S
O525        C535   1.283       .  A
O526       Cu533   2.010       .  S
O526        C536   1.279       .  A
O527       Cu533   2.023       .  S
O527        C537   1.281       .  A
O528       Cu533   2.069       .  S
O528        C538   1.284       .  A
O529       Cu534   2.061       .  S
O529       C1366   1.284       .  A
O530       Cu534   2.032       .  S
O530       C1365   1.280   1_455  A
O531       Cu534   2.027       .  S
O531       C1364   1.280       .  A
O532       Cu534   2.066       .  S
O532       C1363   1.284   1_455  A
Cu533     Cu1362   2.363       .  S
Cu534     Cu1361   2.362   1_455  S
C535        C560   1.512       .  S
C535       O1360   1.282       .  A
C536        C721   1.495       .  S
C536       O1359   1.280       .  A
C537        C709   1.492       .  S
C537       O1358   1.277       .  A
C538        C559   1.518       .  S
C538       O1357   1.284       .  A
N539        C543   1.369       .  A
N539        H571   1.041       .  S
N540        C547   1.351       .  A
N540        C548   1.356       .  A
N541        C545   1.344       .  A
N541        H572   1.042       .  S
N542        C549   1.349       .  A
N542        C550   1.353       .  A
C543        C551   1.387       .  A
C543        C559   1.445       .  A
C544        C560   1.445       .  A
C544        C552   1.389   1_565  A
C545        C553   1.388       .  A
C545        C562   1.402       .  A
C546        C561   1.406       .  A
C546        C554   1.388   1_565  A
C547        C559   1.418       .  A
C547        C555   1.385       .  A
C548        C562   1.415       .  A
C548        C556   1.382       .  A
C549        C557   1.389       .  A
C549        C560   1.418       .  A
C550        C558   1.381       .  A
C550        C561   1.408       .  A
C551        H563   1.082       .  S
C552        H564   1.082   1_545  S
C553        H565   1.082       .  S
C554        H566   1.080   1_545  S
C555        C556   1.380       .  A
C555        H567   1.075       .  S
C556        H568   1.081       .  S
C557        C558   1.379       .  A
C557        H569   1.081       .  S
C558        H570   1.082       .  S
C561        C688   1.485       .  S
C562        C697   1.487       .  S
O573       Cu581   2.019       .  S
O573       C1411   1.281   1_455  A
O574       Cu581   2.030       .  S
O574       C1412   1.281       .  A
O575       Cu581   2.023       .  S
O575       C1413   1.279       .  A
O576       Cu581   2.007       .  S
O576       C1414   1.280   1_455  A
O577       Cu582   2.004       .  S
O577        C586   1.276       .  A
O578       Cu582   2.001       .  S
O578        C585   1.279       .  A
O579       Cu582   2.000       .  S
O579        C584   1.277       .  A
O580       Cu582   1.999       .  S
O580        C583   1.276       .  A
Cu581     Cu1410   2.361   1_455  S
Cu582     Cu1409   2.362       .  S
C583        C661   1.496       .  S
C583       O1401   1.280       .  A
C584        C700   1.497       .  S
C584       O1402   1.279       .  A
C585        C673   1.484       .  S
C585       O1403   1.278       .  A
C586        C685   1.481       .  S
C586       O1404   1.280       .  A
C587        C712   1.584   1_545  S
C587        C736   1.573       .  S
C587       C1576   1.590       .  S
N588        C593   1.366       .  A
N588        H620   1.038       .  S
N589        C596   1.351       .  A
N589        C597   1.357       .  A
N590        C595   1.351       .  A
N590        H621   1.040       .  S
N591        C598   1.351       .  A
N591        C599   1.355       .  A
C592        C600   1.388       .  A
C592        C608   1.450       .  A
C593        C609   1.443       .  A
C593        C601   1.388       .  A
C594        C602   1.387       .  A
C594        C611   1.399       .  A
C595        C610   1.406       .  A
C595        C603   1.387       .  A
C596        C608   1.422       .  A
C596        C604   1.384       .  A
C597        C611   1.413       .  A
C597        C605   1.381       .  A
C598        C606   1.387       .  A
C598        C609   1.420       .  A
C599        C607   1.380       .  A
C599        C610   1.410       .  A
C600        H612   1.083       .  S
C601        H613   1.082       .  S
C602        H614   1.081       .  S
C603        H615   1.081       .  S
C604        C605   1.380       .  A
C604        H616   1.074       .  S
C605        H617   1.082       .  S
C606        C607   1.380       .  A
C606        H618   1.081       .  S
C607        H619   1.082       .  S
C608        C634   1.523       .  S
C609        C633   1.514       .  S
C610        C676   1.489       .  S
C611        C664   1.487       .  S
O622       Cu630   2.020       .  S
O622        C632   1.280       .  A
O623       Cu630   2.058       .  S
O623        C633   1.283       .  A
O624       Cu630   2.062       .  S
O624        C634   1.284       .  A
O625       Cu630   2.024       .  S
O625        C635   1.280       .  A
O626       Cu631   2.042       .  S
O626       C1463   1.281       .  A
O627       Cu631   2.075       .  S
O627       C1462   1.284       .  A
O628       Cu631   2.057       .  S
O628       C1461   1.283       .  A
O629       Cu631   2.012       .  S
O629       C1460   1.277   1_455  A
Cu630     Cu1459   2.361       .  S
Cu631     Cu1458   2.358   1_455  S
C632        C637   1.495       .  S
C632       O1457   1.277       .  A
C633       O1456   1.283       .  A
C634       O1455   1.285       .  A
C635        C652   1.504       .  S
C635       O1454   1.283       .  A
C636        C640   1.581   1_545  S
C636        C760   1.573       .  S
C636       C1600   1.588       .  S
C637        C638   1.399       .  A
C637       C1470   1.414       .  A
C638        C639   1.404       .  A
C638        H647   1.083       .  S
C639        C640   1.434       .  A
C639        S643   1.804       .  S
C640       C1469   1.420       .  A
C641       C1468   1.419   1_455  A
C641        C642   1.402       .  A
C641        H648   1.079       .  S
C642       C1465   1.415   1_455  A
C642        S644   1.803       .  S
S643        H646   1.407       .  S
S644        H645   1.407       .  S
C649       C1478   1.426       .  A
C649        C654   1.438       .  A
C650       C1477   1.424       .  A
C650        C651   1.406       .  A
C650        H659   1.080       .  S
C651       C1480   1.414       .  A
C651        S655   1.800       .  S
C652       C1479   1.408       .  A
C652        C653   1.405       .  A
C653        C654   1.416       .  A
C653        H660   1.082       .  S
C654        S656   1.809       .  S
S655        H658   1.408       .  S
S656        H657   1.406       .  S
C661       C1490   1.408       .  A
C661        C666   1.422       .  A
C662       C1489   1.408   1_455  A
C662        C663   1.400       .  A
C662        H671   1.083       .  S
C663       C1492   1.414   1_455  A
C663        S667   1.806       .  S
C664       C1491   1.415       .  A
C664        C665   1.401       .  A
C665        C666   1.403       .  A
C665        H672   1.084       .  S
C666        S668   1.801       .  S
S667        H670   1.403       .  S
S668        H669   1.408       .  S
C673        C674   1.407       .  A
C673       C1506   1.411       .  A
C674        C675   1.397       .  A
C674        H683   1.084       .  S
C675        C676   1.411       .  A
C675        S679   1.803       .  S
C676       C1505   1.408       .  A
C677       C1504   1.411       .  A
C677        C678   1.413       .  A
C677        H684   1.083       .  S
C678       C1501   1.411       .  A
C678        S680   1.804       .  S
S679        H682   1.404       .  S
S680        H681   1.407       .  S
C685       C1514   1.407       .  A
C685        C690   1.413       .  A
C686       C1513   1.405   1_455  A
C686        C687   1.397   1_455  A
C686        H695   1.084       .  S
C687       C1516   1.413       .  A
C687        S691   1.804   1_655  S
C688       C1515   1.411       .  A
C688        C689   1.407       .  A
C689        C690   1.404       .  A
C689        H696   1.084       .  S
C690        S692   1.802       .  S
S691        H694   1.399       .  S
S692        H693   1.407       .  S
C697        C698   1.402       .  A
C697       C1530   1.409       .  A
C698        C699   1.398       .  A
C698        H707   1.085       .  S
C699        C700   1.420       .  A
C699        S703   1.802       .  S
C700       C1529   1.413       .  A
C701       C1528   1.414       .  A
C701        C702   1.411       .  A
C701        H708   1.083       .  S
C702       C1525   1.412       .  A
C702        S704   1.802       .  S
S703        H706   1.408       .  S
S704        H705   1.405       .  S
C709        C710   1.396       .  A
C709       C1542   1.413       .  A
C710        C711   1.404       .  A
C710        H719   1.083       .  S
C711        C712   1.436       .  A
C711        S715   1.800   1_565  S
C712       C1541   1.421       .  A
C713       C1540   1.420   1_455  A
C713        C714   1.410       .  A
C713        H720   1.079       .  S
C714       C1537   1.417   1_455  A
C714        S716   1.802       .  S
S716        H717   1.408       .  S
C721        C722   1.403       .  A
C721       C1554   1.406       .  A
C722        C723   1.409       .  A
C722        H731   1.083       .  S
C723        C724   1.437       .  A
C723        S727   1.809       .  S
C724       C1553   1.425       .  A
C725       C1552   1.426       .  A
C725        C726   1.403       .  A
C725        H732   1.081       .  S
C726       C1549   1.403       .  A
C726        S728   1.808       .  S
S727        H730   1.407       .  S
S728        H729   1.406       .  S
C733        C734   1.400   1_545  A
C734        C735   1.406       .  A
C734        H743   1.083       .  S
C735        C736   1.442   1_565  A
C735        S739   1.814       .  S
C737        C738   1.407       .  A
C737        H744   1.078       .  S
C738        S740   1.807       .  S
S739        H742   1.407       .  S
S740        H741   1.407       .  S
C745        C750   1.411       .  A
C746        C747   1.411       .  A
C746        H755   1.083       .  S
C747        S751   1.812       .  S
C748        C749   1.423       .  A
C748       C1415   1.597   1_455  S
C749        C750   1.408       .  A
C749        H756   1.080       .  S
C750        S752   1.802       .  S
S751        H754   1.407       .  S
S752        H753   1.408       .  S
C757        C758   1.401   1_545  A
C758        C759   1.408       .  A
C758        H767   1.082       .  S
C759        C760   1.441   1_565  A
C759        S763   1.815       .  S
C761        C762   1.408       .  A
C761        H768   1.078       .  S
C762        S764   1.807       .  S
S763        H766   1.406       .  S
S764        H765   1.407       .  S
C769        C774   1.409       .  A
C770        C771   1.401       .  A
C770        H779   1.082       .  S
C771        S775   1.812       .  S
C772        C773   1.422       .  A
C772       C1464   1.589   1_455  S
C773        C774   1.407       .  A
C773        H780   1.075       .  S
C774        S776   1.808       .  S
S775        H778   1.407       .  S
S776        H777   1.407       .  S
C781        C786   1.417       .  A
C782        C783   1.408       .  A
C782        H791   1.083       .  S
C783        S787   1.803       .  S
C784        C785   1.406       .  A
C785        C786   1.403       .  A
C785        H792   1.084       .  S
C786        S788   1.801   1_545  S
S787        H790   1.402       .  S
S788        H789   1.408       .  S
C793        C798   1.412       .  A
C794        C795   1.397       .  A
C794        H803   1.084       .  S
C795        S799   1.804       .  S
C796        C797   1.410       .  A
C797        C798   1.409       .  A
C797        H804   1.084       .  S
C798        S800   1.802       .  S
S799        H802   1.404       .  S
S800        H801   1.406       .  S
C805        C806   1.400   1_545  A
C806        C807   1.399       .  A
C806        H815   1.085       .  S
C807        C808   1.423   1_565  A
C807        S811   1.800       .  S
C809        C810   1.402       .  A
C809        H816   1.084       .  S
C810        S812   1.802       .  S
S811        H814   1.391       .  S
S812        H813   1.404       .  S
C817        C822   1.413       .  A
C818        C819   1.407       .  A
C818        H827   1.083       .  S
C819        S823   1.810       .  S
C820        C821   1.411       .  A
C821        C822   1.410       .  A
C821        H828   1.083       .  S
C822        S824   1.802       .  S
S823        H826   1.407       .  S
S824        H825   1.407       .  S
N829        C834   1.368       .  A
N829        H861   1.035       .  S
N830       C1251   1.352   1_565  A
N830        C838   1.356   1_565  A
N831        C835   1.347       .  A
N831        H862   1.043       .  S
N832       C1253   1.351       .  A
N832        C840   1.356       .  A
C833        C841   1.389       .  A
C833        C849   1.454       .  A
C834        C850   1.447       .  A
C834        C842   1.389       .  A
C835        C843   1.386       .  A
C835        C852   1.404       .  A
C836        C851   1.404       .  A
C836        C844   1.386       .  A
C837       N1244   1.352       .  A
C837        C849   1.427       .  A
C837        C845   1.389       .  A
C838        C852   1.417   1_545  A
C838        C846   1.382       .  A
C839       N1246   1.352       .  A
C839        C847   1.390       .  A
C839        C850   1.423       .  A
C840        C848   1.381       .  A
C840        C851   1.414       .  A
C841        H853   1.082       .  S
C842        H854   1.082       .  S
C843        H855   1.081       .  S
C844        H856   1.080       .  S
C845       C1260   1.381       .  A
C845        H857   1.077       .  S
C846       C1259   1.382       .  A
C846        H858   1.081       .  S
C847       C1262   1.375       .  A
C847        H859   1.080       .  S
C848       C1261   1.381       .  A
C848        H860   1.082       .  S
C849        C889   1.522       .  S
C850        C888   1.516       .  S
C851       C1645   1.495       .  S
C852       C1633   1.493       .  S
O863       Cu871   2.033       .  S
O863       C1287   1.282       .  A
O864       Cu871   2.043       .  S
O864       C1288   1.283       .  A
O865       Cu871   2.030       .  S
O865       C1289   1.279   1_556  A
O866       Cu871   2.002       .  S
O866       C1290   1.279       .  A
O867       Cu872   2.024       .  S
O867        C876   1.278       .  A
O868       Cu872   2.010       .  S
O868        C875   1.281       .  A
O869       Cu872   2.018       .  S
O869        C874   1.279       .  A
O870       Cu872   2.026       .  S
O870        C873   1.279       .  A
Cu871     Cu1286   2.360       .  S
Cu872     Cu1285   2.361       .  S
C873       C1222   1.507   1_556  S
C873       O1277   1.281       .  A
C874       C1207   1.507       .  S
C874       O1278   1.280       .  A
C875       C1234   1.484   1_556  S
C875       O1279   1.276       .  A
C876       C1195   1.482       .  S
C876       O1280   1.278       .  A
O877       Cu885   2.026       .  S
O877        C887   1.280       .  A
O878       Cu885   2.060       .  S
O878        C888   1.282       .  A
O879       Cu885   2.059       .  S
O879        C889   1.283       .  A
O880       Cu885   2.018       .  S
O880        C890   1.278       .  A
O881       Cu886   2.038       .  S
O881       C1304   1.282       .  A
O882       Cu886   2.078       .  S
O882       C1303   1.285       .  A
O883       Cu886   2.050       .  S
O883       C1302   1.282       .  A
O884       Cu886   2.008       .  S
O884       C1301   1.276   1_545  A
Cu885     Cu1300   2.361       .  S
Cu886     Cu1299   2.357   1_545  S
C887       C1171   1.485       .  S
C887       O1298   1.277       .  A
C888       O1297   1.283       .  A
C889       O1296   1.285       .  A
C890       C1183   1.509       .  S
C890       O1295   1.282       .  A
N891        C895   1.346       .  A
N891        H923   1.040       .  S
N892        C899   1.359       .  A
N892        C900   1.351       .  A
N893        C897   1.369       .  A
N893        H924   1.038       .  S
N894        C901   1.357       .  A
N894        C902   1.352       .  A
C895        C903   1.387       .  A
C895        C911   1.402       .  A
C896        C912   1.406       .  A
C896        C904   1.387       .  A
C897        C905   1.388       .  A
C897        C914   1.447       .  A
C898        C913   1.449       .  A
C898        C906   1.390       .  A
C899        C911   1.418       .  A
C899        C907   1.380       .  A
C900        C914   1.422       .  A
C900        C908   1.385       .  A
C901        C909   1.380       .  A
C901        C912   1.413       .  A
C902        C910   1.390       .  A
C902        C913   1.425       .  A
C903        H915   1.082       .  S
C904        H916   1.081       .  S
C905        H917   1.083       .  S
C906        H918   1.082       .  S
C907        C908   1.381       .  A
C907        H919   1.080       .  S
C908        H920   1.075       .  S
C909        C910   1.379       .  A
C909        H921   1.082       .  S
C910        H922   1.079       .  S
C911       C1210   1.496       .  S
C912       C1198   1.492       .  S
C913        C935   1.519       .  S
C914        C938   1.517       .  S
O925       Cu933   2.044       .  S
O925        C935   1.281       .  A
O926       Cu933   2.015       .  S
O926        C936   1.277       .  A
O927       Cu933   2.028       .  S
O927        C937   1.281       .  A
O928       Cu933   2.075       .  S
O928        C938   1.285       .  A
O929       Cu934   2.050       .  S
O929       C1352   1.282       .  A
O930       Cu934   2.006       .  S
O930       C1351   1.276       .  A
O931       Cu934   2.042       .  S
O931       C1350   1.283       .  A
O932       Cu934   2.069       .  S
O932       C1349   1.284       .  A
Cu933     Cu1348   2.358       .  S
Cu934     Cu1347   2.358   1_545  S
C935       O1346   1.285       .  A
C936       C1159   1.511       .  S
C936       O1345   1.284       .  A
C937       C1147   1.498       .  S
C937       O1344   1.275       .  A
C938       O1343   1.282       .  A
O939       Cu947   2.066       .  S
O939        C949   1.283       .  A
O940       Cu947   2.022       .  S
O940        C950   1.280       .  A
O941       Cu947   2.011       .  S
O941        C951   1.280   1_655  A
O942       Cu947   2.051       .  S
O942        C952   1.283       .  A
O943       Cu948   2.053       .  S
O944       Cu948   2.021       .  S
O945       Cu948   2.010       .  S
O946       Cu948   2.045       .  S
C949        C974   1.517   1_655  S
C950       C1135   1.497       .  S
C951       C1123   1.509       .  S
C952        C973   1.523       .  S
N953       C1372   1.367       .  A
N953        C957   1.369   1_565  A
N953        H985   1.036       .  S
N954        C961   1.353       .  A
N954        C962   1.355       .  A
N955       C1374   1.352       .  A
N955        C959   1.351   1_565  A
N955        H986   1.040       .  S
N956        C963   1.349       .  A
N956        C964   1.358       .  A
C957        C965   1.388       .  A
C957        C973   1.448       .  A
C958       N1367   1.370       .  A
C958        C974   1.450       .  A
C958        C966   1.389       .  A
C959        C967   1.389       .  A
C959        C976   1.411       .  A
C960       N1369   1.345       .  A
C960        C975   1.401       .  A
C960        C968   1.385       .  A
C961        C973   1.425       .  A
C961        C969   1.389       .  A
C962        C976   1.413       .  A
C962        C970   1.381       .  A
C963        C971   1.386   1_455  A
C963        C974   1.420       .  A
C964        C972   1.381   1_455  A
C964        C975   1.416       .  A
C965       C1380   1.391   1_645  A
C965        H977   1.082   1_655  S
C966       C1379   1.393       .  A
C966        H978   1.082       .  S
C967       C1382   1.359   1_545  A
C967        H979   1.080       .  S
C968       C1381   1.373       .  A
C968        H980   1.082       .  S
C969        C970   1.378       .  A
C969        H981   1.079       .  S
C970        H982   1.082       .  S
C971        C972   1.382       .  A
C971        H983   1.075       .  S
C972        H984   1.081       .  S
C975       C1102   1.494       .  S
C976       C1111   1.490       .  S
O987       Cu995   2.008       .  S
O988       Cu995   1.996       .  S
O989       Cu995   2.010       .  S
O990       Cu995   2.019       .  S
O991       Cu996   2.031       .  S
O991       C1000   1.281   1_655  A
O992       Cu996   2.037       .  S
O992        C999   1.282       .  A
O993       Cu996   2.014       .  S
O993        C998   1.277       .  A
O994       Cu996   2.014       .  S
O994        C997   1.279   1_655  A
C997       C1075   1.488       .  S
C998       C1114   1.483       .  S
C999       C1087   1.507       .  S
C1000      C1099   1.505       .  S
C1001      C1126   1.581       .  S
C1001      C1552   1.578       .  S
C1001      C1150   1.575   1_455  S
N1002      C1007   1.368   1_665  A
N1002      C1420   1.372   1_655  A
N1002      H1034   1.039   1_655  S
N1003      C1010   1.351       .  A
N1003      C1011   1.355       .  A
N1004      C1009   1.346   1_565  A
N1004      C1422   1.343       .  A
N1004      H1035   1.042       .  S
N1005      C1012   1.351       .  A
N1005      C1013   1.360       .  A
C1006      N1416   1.367       .  A
C1006      C1014   1.388       .  A
C1006      C1022   1.446       .  A
C1007      C1023   1.451   1_455  A
C1007      C1015   1.389   1_545  A
C1008      N1418   1.351       .  A
C1008      C1016   1.388       .  A
C1008      C1025   1.409       .  A
C1009      C1024   1.401       .  A
C1009      C1017   1.387   1_545  A
C1010      C1022   1.423       .  A
C1010      C1018   1.391       .  A
C1011      C1025   1.410       .  A
C1011      C1019   1.381       .  A
C1012      C1020   1.389       .  A
C1012      C1023   1.428       .  A
C1013      C1021   1.381       .  A
C1013      C1024   1.420       .  A
C1014      C1429   1.391       .  A
C1014      H1026   1.082   1_455  S
C1015      C1428   1.392       .  A
C1015      H1027   1.082   1_565  S
C1016      C1431   1.358       .  A
C1016      H1028   1.080       .  S
C1017      C1430   1.370       .  A
C1017      H1029   1.082   1_565  S
C1018      C1019   1.377       .  A
C1018      H1030   1.081       .  S
C1019      H1031   1.083       .  S
C1020      C1021   1.382       .  A
C1020      H1032   1.077   1_655  S
C1021      H1033   1.083       .  S
C1022      C1048   1.512       .  S
C1023      C1047   1.516   1_655  S
C1024      C1090   1.498       .  S
C1025      C1078   1.488       .  S
O1036     Cu1044   2.005       .  S
O1036      C1046   1.277   1_655  A
O1037     Cu1044   2.041       .  S
O1037      C1047   1.281   1_655  A
O1038     Cu1044   2.058       .  S
O1038      C1048   1.283   1_655  A
O1039     Cu1044   2.024       .  S
O1039      C1049   1.281   1_655  A
O1040     Cu1045   2.002       .  S
O1041     Cu1045   2.038       .  S
O1042     Cu1045   2.064       .  S
O1043     Cu1045   2.022       .  S
C1046      C1051   1.491       .  S
C1049      C1066   1.495   1_455  S
C1050      C1054   1.582       .  S
C1050      C1477   1.591       .  S
C1050      C1174   1.577   1_455  S
C1051      C1052   1.401   1_455  A
C1052      C1053   1.409       .  A
C1052      H1061   1.083       .  S
C1053      C1054   1.440   1_655  A
C1053      S1057   1.814       .  S
C1055      C1056   1.404       .  A
C1055      H1062   1.079       .  S
C1056      S1058   1.800       .  S
S1057      H1060   1.407       .  S
S1058      H1059   1.407       .  S
C1063      C1068   1.440       .  A
C1063      C1464   1.577   1_545  S
C1064      C1065   1.394       .  A
C1064      H1073   1.082       .  S
C1065      S1069   1.804       .  S
C1066      C1067   1.403       .  A
C1067      C1068   1.410       .  A
C1067      H1074   1.081       .  S
C1068      S1070   1.814       .  S
S1069      H1072   1.407       .  S
S1070      H1071   1.406       .  S
C1075      C1080   1.421   1_455  A
C1076      C1077   1.403       .  A
C1076      H1085   1.084       .  S
C1077      S1081   1.802       .  S
C1078      C1079   1.399       .  A
C1079      C1080   1.402   1_455  A
C1079      H1086   1.083   1_455  S
C1080      S1082   1.806       .  S
S1081      H1084   1.405       .  S
S1082      H1083   1.407       .  S
C1087      C1088   1.413       .  A
C1088      C1089   1.410       .  A
C1088      H1097   1.083       .  S
C1089      C1090   1.412       .  A
C1089      S1093   1.803       .  S
C1091      C1092   1.406       .  A
C1091      H1098   1.083       .  S
C1092      S1094   1.810       .  S
S1093      H1096   1.404       .  S
S1094      H1095   1.407       .  S
C1099      C1104   1.420   1_455  A
C1100      C1101   1.409       .  A
C1100      H1109   1.083       .  S
C1101      S1105   1.803       .  S
C1102      C1103   1.405   1_455  A
C1103      C1104   1.404       .  A
C1103      H1110   1.084       .  S
C1104      S1106   1.801       .  S
S1105      H1108   1.405       .  S
S1106      H1107   1.408       .  S
C1111      C1112   1.411       .  A
C1112      C1113   1.409       .  A
C1112      H1121   1.084       .  S
C1113      C1114   1.413       .  A
C1113      S1117   1.802       .  S
C1115      C1116   1.393       .  A
C1115      H1122   1.084       .  S
C1116      S1118   1.805       .  S
S1117      H1120   1.406       .  S
S1118      H1119   1.403       .  S
C1123      C1124   1.401   1_455  A
C1124      C1125   1.402       .  A
C1124      H1133   1.082       .  S
C1125      C1126   1.434   1_655  A
C1125      S1129   1.805       .  S
C1127      C1128   1.403       .  A
C1127      H1134   1.080       .  S
C1128      S1130   1.800       .  S
S1129      H1546   1.407       .  S
S1130      H1131   1.408       .  S
H1132      S1543   1.406       .  S
C1135      C1136   1.402       .  A
C1136      C1137   1.407       .  A
C1136      H1145   1.084       .  S
C1137      C1138   1.446       .  A
C1137      S1141   1.813       .  S
C1138      C1415   1.582   1_545  S
C1139      C1140   1.401       .  A
C1139      H1146   1.080       .  S
C1140      S1142   1.812       .  S
S1141      H1144   1.392       .  S
S1142      H1143   1.406       .  S
C1147      C1148   1.402       .  A
C1147      C1566   1.414       .  A
C1148      C1149   1.407       .  A
C1148      H1157   1.082       .  S
C1149      C1150   1.439       .  A
C1149      S1153   1.813       .  S
C1150      C1565   1.417       .  A
C1151      C1564   1.417   1_545  A
C1151      C1152   1.399       .  A
C1151      H1158   1.077       .  S
C1152      C1561   1.412       .  A
C1152      S1154   1.811       .  S
S1153      H1156   1.407       .  S
S1154      H1155   1.407       .  S
C1159      C1574   1.406       .  A
C1159      C1164   1.415       .  A
C1160      C1573   1.405       .  A
C1160      C1161   1.415       .  A
C1160      H1169   1.082       .  S
C1161      C1576   1.441       .  A
C1161      S1165   1.812       .  S
C1162      C1575   1.440       .  A
C1162      C1163   1.417       .  A
C1163      C1164   1.400       .  A
C1163      H1170   1.077       .  S
C1164      S1166   1.802       .  S
S1165      H1168   1.407       .  S
S1166      H1167   1.408       .  S
C1171      C1172   1.395       .  A
C1171      C1590   1.409       .  A
C1172      C1173   1.407       .  A
C1172      H1181   1.083       .  S
C1173      C1174   1.442       .  A
C1173      S1177   1.812   1_655  S
C1174      C1589   1.416       .  A
C1175      C1588   1.417   1_545  A
C1175      C1176   1.400       .  A
C1175      H1182   1.074       .  S
C1176      C1585   1.413   1_545  A
C1176      S1178   1.811       .  S
S1177      H1180   1.407       .  S
S1178      H1179   1.407       .  S
C1183      C1598   1.406       .  A
C1183      C1188   1.415       .  A
C1184      C1597   1.405       .  A
C1184      C1185   1.413       .  A
C1184      H1193   1.082       .  S
C1185      C1600   1.440       .  A
C1185      S1189   1.813       .  S
C1186      C1599   1.439       .  A
C1186      C1187   1.418       .  A
C1187      C1188   1.399       .  A
C1187      H1194   1.078       .  S
C1188      S1190   1.801       .  S
S1189      H1192   1.407       .  S
S1190      H1191   1.408       .  S
C1195      C1610   1.405       .  A
C1195      C1200   1.412       .  A
C1196      C1609   1.408       .  A
C1196      C1197   1.397       .  A
C1196      H1205   1.084       .  S
C1197      C1612   1.410       .  A
C1197      S1201   1.804       .  S
C1198      C1611   1.411       .  A
C1198      C1199   1.413       .  A
C1199      C1200   1.411       .  A
C1199      H1206   1.084       .  S
C1200      S1202   1.803       .  S
S1201      H1204   1.404       .  S
S1202      H1203   1.405       .  S
C1207      C1622   1.414       .  A
C1207      C1212   1.422       .  A
C1208      C1621   1.413       .  A
C1208      C1209   1.414       .  A
C1208      H1217   1.083       .  S
C1209      C1624   1.415       .  A
C1209      S1213   1.802       .  S
C1210      C1623   1.411       .  A
C1210      C1211   1.402       .  A
C1211      C1212   1.402       .  A
C1211      H1218   1.085       .  S
C1212      S1214   1.801       .  S
S1213      H1216   1.406       .  S
S1214      H1215   1.408       .  S
C1219      C1220   1.404       .  A
C1219      C1638   1.413       .  A
C1219      C1266   1.497       .  S
C1220      C1221   1.416       .  A
C1220      H1229   1.082       .  S
C1221      C1222   1.427       .  A
C1221      S1225   1.808       .  S
C1222      C1637   1.407       .  A
C1223      C1636   1.409       .  A
C1223      C1224   1.403       .  A
C1223      H1230   1.083       .  S
C1224      C1633   1.414   1_545  A
C1224      S1226   1.804       .  S
S1225      H1228   1.407       .  S
S1226      H1227   1.403       .  S
C1231      C1646   1.408       .  A
C1231      C1236   1.411       .  A
C1231      C1265   1.489       .  S
C1232      C1645   1.416       .  A
C1232      C1233   1.415       .  A
C1232      H1241   1.083       .  S
C1233      C1648   1.407       .  A
C1233      S1237   1.803       .  S
C1234      C1647   1.413       .  A
C1234      C1235   1.406       .  A
C1235      C1236   1.395       .  A
C1235      H1242   1.083       .  S
C1236      S1238   1.804       .  S
S1237      H1240   1.407       .  S
S1238      H1239   1.403       .  S
N1243      C1248   1.370       .  A
N1243      H1275   1.038       .  S
N1244      C1252   1.360       .  A
N1245      C1249   1.347   1_455  A
N1245      H1276   1.039       .  S
N1246      C1254   1.355       .  A
C1247      C1255   1.389       .  A
C1247      C1263   1.450   1_565  A
C1248      C1264   1.451       .  A
C1248      C1256   1.390   1_545  A
C1249      C1257   1.384       .  A
C1249      C1266   1.401       .  A
C1250      C1265   1.411       .  A
C1250      C1258   1.388       .  A
C1251      C1263   1.420       .  A
C1251      C1259   1.386       .  A
C1252      C1266   1.418       .  A
C1252      C1260   1.380       .  A
C1253      C1261   1.391       .  A
C1253      C1264   1.426       .  A
C1254      C1262   1.380       .  A
C1254      C1265   1.411       .  A
C1255      H1267   1.082       .  S
C1256      H1268   1.082       .  S
C1257      H1269   1.082       .  S
C1258      H1270   1.080       .  S
C1259      H1271   1.078       .  S
C1260      H1272   1.082       .  S
C1261      H1273   1.079       .  S
C1262      H1274   1.082       .  S
C1263      C1303   1.522       .  S
C1264      C1302   1.521       .  S
O1277     Cu1285   2.013       .  S
O1278     Cu1285   2.026       .  S
O1279     Cu1285   2.004       .  S
O1280     Cu1285   1.996       .  S
O1281     Cu1286   2.008   1_565  S
O1281      C1290   1.277   1_565  A
O1282     Cu1286   2.005       .  S
O1282      C1289   1.279   1_556  A
O1283     Cu1286   2.007       .  S
O1283      C1288   1.277       .  A
O1284     Cu1286   2.006   1_565  S
O1284      C1287   1.276   1_565  A
C1287      C1636   1.504   1_556  S
C1288      C1621   1.512       .  S
C1289      C1648   1.487       .  S
C1290      C1609   1.481       .  S
O1291     Cu1299   2.036       .  S
O1291      C1301   1.282       .  A
O1292     Cu1299   2.072       .  S
O1292      C1302   1.285   1_565  A
O1293     Cu1299   2.060       .  S
O1293      C1303   1.283   1_565  A
O1294     Cu1299   2.017       .  S
O1294      C1304   1.277   1_565  A
O1295     Cu1300   2.036       .  S
O1296     Cu1300   2.076       .  S
O1297     Cu1300   2.052       .  S
O1298     Cu1300   2.005       .  S
C1301      C1585   1.504       .  S
C1304      C1597   1.509       .  S
N1305      C1309   1.348       .  A
N1305      H1337   1.042       .  S
N1306      C1313   1.363       .  A
N1306      C1314   1.353       .  A
N1307      C1311   1.367       .  A
N1307      H1338   1.040       .  S
N1308      C1315   1.353   1_545  A
N1308      C1316   1.349   1_545  A
C1309      C1317   1.386       .  A
C1309      C1325   1.404       .  A
C1310      C1326   1.406       .  A
C1310      C1318   1.388       .  A
C1311      C1319   1.390       .  A
C1311      C1328   1.450       .  A
C1312      C1327   1.445       .  A
C1312      C1320   1.387       .  A
C1313      C1325   1.423       .  A
C1313      C1321   1.380       .  A
C1314      C1328   1.430       .  A
C1314      C1322   1.388       .  A
C1315      C1323   1.380       .  A
C1315      C1326   1.408   1_565  A
C1316      C1324   1.389       .  A
C1316      C1327   1.418   1_565  A
C1317      H1329   1.081       .  S
C1318      H1330   1.081       .  S
C1319      H1331   1.082       .  S
C1320      H1332   1.082       .  S
C1321      C1322   1.382       .  A
C1321      H1333   1.081       .  S
C1322      H1334   1.076       .  S
C1323      C1324   1.377       .  A
C1323      H1335   1.082       .  S
C1324      H1336   1.081       .  S
C1325      C1624   1.505       .  S
C1326      C1612   1.485       .  S
C1327      C1349   1.514       .  S
C1328      C1352   1.518       .  S
O1339     Cu1347   2.044       .  S
O1339      C1349   1.282   1_565  A
O1340     Cu1347   2.011       .  S
O1340      C1350   1.276   1_565  A
O1341     Cu1347   2.035       .  S
O1341      C1351   1.281   1_565  A
O1342     Cu1347   2.075       .  S
O1342      C1352   1.285   1_565  A
O1343     Cu1348   2.051       .  S
O1344     Cu1348   2.003       .  S
O1345     Cu1348   2.050       .  S
O1346     Cu1348   2.073       .  S
C1350      C1573   1.507       .  S
C1351      C1561   1.501       .  S
O1353     Cu1361   2.047       .  S
O1353      C1363   1.282       .  A
O1354     Cu1361   1.998       .  S
O1354      C1364   1.277   1_655  A
O1355     Cu1361   2.046       .  S
O1355      C1365   1.283       .  A
O1356     Cu1361   2.073       .  S
O1356      C1366   1.285   1_655  A
O1357     Cu1362   2.059       .  S
O1358     Cu1362   2.014       .  S
O1359     Cu1362   2.029       .  S
O1360     Cu1362   2.057       .  S
C1363      C1388   1.516       .  S
C1364      C1549   1.487       .  S
C1365      C1537   1.508       .  S
C1366      C1387   1.522       .  S
N1367      C1371   1.369       .  A
N1367      H1399   1.039       .  S
N1368      C1375   1.354       .  A
N1368      C1376   1.360       .  A
N1369      C1373   1.345       .  A
N1369      H1400   1.042       .  S
N1370      C1377   1.353       .  A
N1370      C1378   1.357       .  A
C1371      C1379   1.389       .  A
C1371      C1387   1.450       .  A
C1372      C1388   1.447       .  A
C1372      C1380   1.389   1_655  A
C1373      C1381   1.387       .  A
C1373      C1390   1.401       .  A
C1374      C1389   1.409       .  A
C1374      C1382   1.387       .  A
C1375      C1387   1.427       .  A
C1375      C1383   1.388       .  A
C1376      C1390   1.419       .  A
C1376      C1384   1.379       .  A
C1377      C1385   1.391       .  A
C1377      C1388   1.427       .  A
C1378      C1386   1.381       .  A
C1378      C1389   1.415       .  A
C1379      H1391   1.082       .  S
C1380      H1392   1.082       .  S
C1381      H1393   1.082       .  S
C1382      H1394   1.081       .  S
C1383      C1384   1.380       .  A
C1383      H1395   1.078       .  S
C1384      H1396   1.080       .  S
C1385      C1386   1.378       .  A
C1385      H1397   1.081       .  S
C1386      H1398   1.082       .  S
C1389      C1516   1.495       .  S
C1390      C1525   1.496       .  S
O1401     Cu1409   2.009       .  S
O1402     Cu1409   2.011       .  S
O1403     Cu1409   2.013       .  S
O1404     Cu1409   2.006       .  S
O1405     Cu1410   2.017       .  S
O1405      C1414   1.277       .  A
O1406     Cu1410   2.009   1_455  S
O1406      C1413   1.280       .  A
O1407     Cu1410   2.007   1_455  S
O1407      C1412   1.277       .  A
O1408     Cu1410   2.005       .  S
O1408      C1411   1.276       .  A
C1411      C1489   1.501       .  S
C1412      C1528   1.506       .  S
C1413      C1501   1.490       .  S
C1414      C1513   1.485       .  S
C1415      C1540   1.593       .  S
C1415      C1564   1.576       .  S
N1416      C1421   1.369       .  A
N1416      H1448   1.038       .  S
N1417      C1424   1.350       .  A
N1417      C1425   1.357       .  A
N1418      C1423   1.352       .  A
N1418      H1449   1.041       .  S
N1419      C1426   1.353       .  A
N1419      C1427   1.356       .  A
C1420      C1428   1.388       .  A
C1420      C1436   1.450       .  A
C1421      C1437   1.447       .  A
C1421      C1429   1.388       .  A
C1422      C1430   1.386       .  A
C1422      C1439   1.398       .  A
C1423      C1438   1.408       .  A
C1423      C1431   1.387       .  A
C1424      C1436   1.422   1_655  A
C1424      C1432   1.386   1_655  A
C1425      C1439   1.414       .  A
C1425      C1433   1.380       .  A
C1426      C1434   1.388       .  A
C1426      C1437   1.424       .  A
C1427      C1435   1.381       .  A
C1427      C1438   1.414       .  A
C1428      H1440   1.083       .  S
C1429      H1441   1.082   1_455  S
C1430      H1442   1.081       .  S
C1431      H1443   1.080       .  S
C1432      C1433   1.380   1_455  A
C1432      H1444   1.075       .  S
C1433      H1445   1.080   1_655  S
C1434      C1435   1.380       .  A
C1434      H1446   1.080       .  S
C1435      H1447   1.082       .  S
C1436      C1462   1.521       .  S
C1437      C1461   1.522       .  S
C1438      C1504   1.494       .  S
C1439      C1492   1.490       .  S
O1450     Cu1458   2.047       .  S
O1450      C1460   1.283       .  A
O1451     Cu1458   2.074       .  S
O1451      C1461   1.285   1_655  A
O1452     Cu1458   2.060       .  S
O1452      C1462   1.284   1_655  A
O1453     Cu1458   2.012       .  S
O1453      C1463   1.279   1_655  A
O1454     Cu1459   2.047       .  S
O1455     Cu1459   2.078       .  S
O1456     Cu1459   2.054       .  S
O1457     Cu1459   2.009       .  S
C1460      C1465   1.505       .  S
C1463      C1480   1.507       .  S
C1464      C1468   1.586       .  S
C1464      C1588   1.574       .  S
C1465      C1466   1.401       .  A
C1466      C1467   1.414       .  A
C1466      H1475   1.082       .  S
C1467      C1468   1.436       .  A
C1467      S1471   1.803       .  S
C1469      C1470   1.405       .  A
C1469      H1476   1.076       .  S
C1470      S1472   1.811       .  S
S1471      H1474   1.406       .  S
S1472      H1473   1.406       .  S
C1477      C1482   1.435   1_455  A
C1478      C1479   1.405       .  A
C1478      H1487   1.082       .  S
C1479      S1483   1.802       .  S
C1480      C1481   1.403   1_455  A
C1481      C1482   1.407       .  A
C1481      H1488   1.082       .  S
C1482      S1484   1.806       .  S
S1483      H1486   1.408       .  S
S1484      H1485   1.407       .  S
C1489      C1494   1.424       .  A
C1490      C1491   1.399       .  A
C1490      H1499   1.083       .  S
C1491      S1495   1.807       .  S
C1492      C1493   1.401       .  A
C1493      C1494   1.406       .  A
C1493      H1500   1.084       .  S
C1494      S1496   1.801       .  S
S1495      H1498   1.402       .  S
S1496      H1497   1.408       .  S
C1501      C1502   1.407       .  A
C1502      C1503   1.398       .  A
C1502      H1511   1.083   1_455  S
C1503      C1504   1.413       .  A
C1503      S1507   1.805   1_455  S
C1505      C1506   1.409       .  A
C1505      H1512   1.083       .  S
C1506      S1508   1.804       .  S
S1507      H1510   1.402       .  S
S1508      H1509   1.407       .  S
C1513      C1518   1.413       .  A
C1514      C1515   1.397       .  A
C1514      H1523   1.084       .  S
C1515      S1519   1.804       .  S
C1516      C1517   1.412       .  A
C1517      C1518   1.409       .  A
C1517      H1524   1.084       .  S
C1518      S1520   1.802       .  S
S1519      H1522   1.403       .  S
S1520      H1521   1.407       .  S
C1525      C1526   1.401       .  A
C1526      C1527   1.399       .  A
C1526      H1535   1.085   1_455  S
C1527      C1528   1.424       .  A
C1527      S1531   1.802   1_455  S
C1529      C1530   1.404       .  A
C1529      H1536   1.083       .  S
C1530      S1532   1.803       .  S
S1531      H1534   1.408       .  S
S1532      H1533   1.406       .  S
C1537      C1538   1.398       .  A
C1538      C1539   1.412       .  A
C1538      H1547   1.082       .  S
C1539      C1540   1.439       .  A
C1539      S1543   1.802       .  S
C1541      C1542   1.403       .  A
C1541      H1548   1.079       .  S
C1542      S1544   1.803       .  S
S1544      H1545   1.408       .  S
C1549      C1550   1.399   1_455  A
C1550      C1551   1.405       .  A
C1550      H1559   1.083       .  S
C1551      C1552   1.441   1_655  A
C1551      S1555   1.811       .  S
C1553      C1554   1.405       .  A
C1553      H1560   1.081       .  S
C1554      S1556   1.807       .  S
S1555      H1558   1.407       .  S
S1556      H1557   1.407       .  S
C1561      C1562   1.405   1_545  A
C1562      C1563   1.414       .  A
C1562      H1571   1.082       .  S
C1563      C1564   1.438       .  A
C1563      S1567   1.812       .  S
C1565      C1566   1.402       .  A
C1565      H1572   1.077       .  S
C1566      S1568   1.811       .  S
S1567      H1570   1.407       .  S
S1568      H1569   1.407       .  S
C1573      C1578   1.414   1_545  A
C1574      C1575   1.417       .  A
C1574      H1583   1.081       .  S
C1575      S1579   1.813       .  S
C1576      C1577   1.419   1_545  A
C1577      C1578   1.399       .  A
C1577      H1584   1.079       .  S
C1578      S1580   1.803       .  S
S1579      H1582   1.406       .  S
S1580      H1581   1.408       .  S
C1585      C1586   1.406       .  A
C1586      C1587   1.414       .  A
C1586      H1595   1.082       .  S
C1587      C1588   1.436       .  A
C1587      S1591   1.811       .  S
C1589      C1590   1.404       .  A
C1589      H1596   1.076       .  S
C1590      S1592   1.810       .  S
S1591      H1594   1.407       .  S
S1592      H1593   1.407       .  S
C1597      C1602   1.416   1_545  A
C1598      C1599   1.415       .  A
C1598      H1607   1.082       .  S
C1599      S1603   1.812       .  S
C1600      C1601   1.417   1_545  A
C1601      C1602   1.404       .  A
C1601      H1608   1.076       .  S
C1602      S1604   1.810       .  S
S1603      H1606   1.407       .  S
S1604      H1605   1.408       .  S
C1609      C1614   1.412   1_545  A
C1610      C1611   1.393       .  A
C1610      H1619   1.083       .  S
C1611      S1615   1.804       .  S
C1612      C1613   1.407   1_545  A
C1613      C1614   1.403       .  A
C1613      H1620   1.084       .  S
C1614      S1616   1.801       .  S
S1615      H1618   1.400       .  S
S1616      H1617   1.407       .  S
C1621      C1626   1.428       .  A
C1622      C1623   1.409       .  A
C1622      H1631   1.083       .  S
C1623      S1627   1.802       .  S
C1624      C1625   1.400       .  A
C1625      C1626   1.405       .  A
C1625      H1632   1.083       .  S
C1626      S1628   1.810   1_545  S
S1627      H1630   1.405       .  S
S1628      H1629   1.407       .  S
C1633      C1634   1.401       .  A
C1634      C1635   1.404       .  A
C1634      H1643   1.084       .  S
C1635      C1636   1.425   1_565  A
C1635      S1639   1.801       .  S
C1637      C1638   1.396       .  A
C1637      H1644   1.083       .  S
C1638      S1640   1.806       .  S
S1639      H1642   1.408       .  S
S1640      H1641   1.405       .  S
C1645      C1650   1.412       .  A
C1646      C1647   1.410       .  A
C1646      H1655   1.083       .  S
C1647      S1651   1.804       .  S
C1648      C1649   1.404       .  A
C1649      C1650   1.396       .  A
C1649      H1656   1.080       .  S
C1650      S1652   1.804       .  S
S1651      H1654   1.407       .  S
S1652      H1653   1.398       .  S
