geometry optimzed in LAMMPS
_audit_creation_date              2020-11-30 
_audit_creation_method            'lammps2cif' 
_symmetry_space_group_name_H-M    'P1' 
_symmetry_Int_Tables_number       1 
_symmetry_cell_setting            triclinic 
loop_ 
_symmetry_equiv_pos_as_xyz 
  x,y,z 
_cell_length_a                    68.59982022415856 
_cell_length_b                    68.9151476735792 
_cell_length_c                    68.85318491568067 
_cell_angle_alpha                 89.76069771711785 
_cell_angle_beta                  90.22610495660119 
_cell_angle_gamma                 89.92606411996233 
loop_ 
_atom_site_label 
_atom_site_type_symbol 
_atom_site_fract_x 
_atom_site_fract_y 
_atom_site_fract_z 
_atom_site_charge 
In1        In  0.41802776  0.77716174  0.74782648     1.36870
C2          C  0.39909337  0.80099675  0.77100646     0.77770
O3          O  0.41586537  0.79991870  0.72492795    -0.60680
O4          O  0.40179353  0.77297673  0.71960273    -0.51590
C5          C  0.45648375  0.77674688  0.74409480     0.70430
O6          O  0.44740988  0.79028016  0.75231810    -0.46450
C7          C  0.41002661  0.74427358  0.76652431     0.75140
O8          O  0.41676512  0.79659376  0.77359997    -0.58310
O9          O  0.40880837  0.74544555  0.74824162    -0.48400
O10         O  0.39102377  0.79325539  0.75646595    -0.54740
C11         C  0.40543906  0.78996758  0.71363927     0.85320
O12         O  0.44575849  0.76354897  0.73738518    -0.56630
O13         O  0.41507634  0.75973332  0.77471021    -0.59920
In14       In  0.34551510  0.83534917  0.61767698     1.36870
C15         C  0.32327061  0.85514309  0.64207571     0.77770
O16         O  0.31889517  0.82971322  0.59963285    -0.60680
O17         O  0.33424669  0.80544575  0.61071123    -0.51590
C18         C  0.36442271  0.85356668  0.58889870     0.70430
O19         O  0.34817029  0.85894398  0.59529119    -0.46450
C20         C  0.36997084  0.82142827  0.64430996     0.75140
O21         O  0.33628442  0.86308486  0.63189600    -0.58310
O22         O  0.36338563  0.81115363  0.63065345    -0.48400
O23         O  0.32183400  0.83707540  0.63981014    -0.54740
C24         C  0.31948063  0.81155726  0.60161947     0.85320
O25         O  0.37100816  0.83848739  0.59703353    -0.56630
O26         O  0.36523959  0.83909639  0.64330931    -0.59920
In27       In  0.57879743  0.77249643  0.74353544     1.36870
C28         C  0.59640671  0.79743618  0.76727205     0.77770
O29         O  0.57310290  0.75054285  0.76673679    -0.60680
O30         O  0.59083179  0.74203312  0.74306675    -0.51590
C31         C  0.54038207  0.77431581  0.74258317     0.70430
O32         O  0.55072300  0.78573325  0.75250125    -0.46450
C33         C  0.59327025  0.78095066  0.70849548     0.75140
O34         O  0.58399308  0.80272634  0.75482588    -0.58310
O35         O  0.60281577  0.77185959  0.72130340    -0.48400
O36         O  0.59996243  0.77954825  0.76723687    -0.54740
C37         C  0.58342976  0.73745805  0.75923280     0.85320
O38         O  0.54984273  0.76189045  0.73299419    -0.56630
O39         O  0.57612218  0.78502492  0.71340970    -0.59920
In40       In  0.65290243  0.82826871  0.61331677     1.36870
C41         C  0.67516582  0.84884975  0.63736443     0.77770
O42         O  0.62580712  0.82646703  0.63206159    -0.60680
O43         O  0.64532138  0.80272935  0.63192643    -0.51590
C44         C  0.63203349  0.84734364  0.58639666     0.70430
O45         O  0.63866599  0.85513645  0.60154254    -0.46450
C46         C  0.68032328  0.80818808  0.59479241     0.75140
O47         O  0.66761655  0.85605035  0.62225007    -0.58310
O48         O  0.66359345  0.80132856  0.59801732    -0.48400
O49         O  0.67093754  0.83132169  0.64026942    -0.54740
C50         C  0.63032799  0.81018619  0.63921217     0.85320
O51         O  0.63537181  0.82933808  0.58533348    -0.56630
O52         O  0.68225324  0.82568502  0.59959700    -0.59920
In53       In  0.42558527  0.21565142  0.74279092     1.36870
C54         C  0.40656298  0.19080566  0.76518696     0.77770
O55         O  0.42071138  0.23225532  0.76986556    -0.60680
O56         O  0.41868151  0.24798321  0.74347776    -0.51590
C57         C  0.46418999  0.21414500  0.74075887     0.70430
O58         O  0.45393496  0.20092376  0.74805089    -0.46450
C59         C  0.41318267  0.20438437  0.70792097     0.75140
O60         O  0.42460230  0.19392633  0.76681823    -0.58310
O61         O  0.40864769  0.22069623  0.71489298    -0.48400
O62         O  0.39816278  0.20057226  0.75200150    -0.54740
C63         C  0.41750071  0.24831944  0.76177537     0.85320
O64         O  0.45460120  0.22838741  0.73424428    -0.56630
O65         O  0.42439160  0.19446947  0.71852262    -0.59920
In66       In  0.35275940  0.15754791  0.61345687     1.36870
C67         C  0.32990896  0.13756390  0.63731089     0.77770
O68         O  0.37578726  0.15571392  0.63646561    -0.60680
O69         O  0.36782930  0.18365383  0.62654307    -0.51590
C70         C  0.37210938  0.13910209  0.58516539     0.70430
O71         O  0.37088343  0.13274638  0.60224902    -0.46450
C72         C  0.32444816  0.17916175  0.59828505     0.75140
O73         O  0.33720163  0.13017507  0.62223847    -0.58310
O74         O  0.34139058  0.18580965  0.60108492    -0.48400
O75         O  0.33437319  0.15507135  0.64001989    -0.54740
C76         C  0.37755861  0.17374375  0.63856529     0.85320
O77         O  0.36399424  0.15532552  0.58266453    -0.56630
O78         O  0.32261684  0.16132369  0.60199569    -0.59920
In79       In  0.58620465  0.21026491  0.74871345     1.36870
C80         C  0.60500297  0.18648650  0.77256560     0.77770
O81         O  0.59215139  0.18689514  0.72727055    -0.60680
O82         O  0.59988934  0.21548185  0.71917146    -0.51590
C83         C  0.54800179  0.21116861  0.74343051     0.70430
O84         O  0.55642641  0.19893035  0.75421317    -0.46450
C85         C  0.59205928  0.24313457  0.76805876     0.75140
O86         O  0.58727311  0.18425068  0.76822903    -0.58310
O87         O  0.60070253  0.23938273  0.75231715    -0.48400
O88         O  0.61300420  0.20102445  0.76477445    -0.54740
C89         C  0.59953909  0.19775391  0.71458180     0.85320
O90         O  0.55926966  0.22289504  0.73497063    -0.56630
O91         O  0.58030989  0.23019473  0.77351251    -0.59920
In92       In  0.65755905  0.15171071  0.61766487     1.36870
C93         C  0.67981969  0.13130448  0.64186623     0.77770
O94         O  0.68622699  0.15574880  0.60300981    -0.60680
O95         O  0.66867442  0.18073229  0.60687564    -0.51590
C96         C  0.63885875  0.13336063  0.58870315     0.70430
O97         O  0.65252981  0.12596729  0.59838274    -0.46450
C98         C  0.63447900  0.16697743  0.64486837     0.75140
O99         O  0.66460111  0.12440579  0.63422666    -0.58310
O100        O  0.64308593  0.17720109  0.63237585    -0.48400
O101        O  0.68324497  0.14872352  0.63744872    -0.54740
C102        C  0.68491941  0.17394412  0.60165621     0.85320
O103        O  0.63481461  0.15051567  0.59357254    -0.56630
O104        O  0.63659726  0.14900451  0.64249143    -0.59920
In105      In  0.42564405  0.77159249  0.24796670     1.36870
C106        C  0.40611219  0.79493042  0.22401850     0.77770
O107        O  0.43250737  0.74832029  0.22633303    -0.60680
O108        O  0.40831178  0.74405369  0.24482550    -0.51590
C109        C  0.46408257  0.77332780  0.25008593     0.70430
O110        O  0.45400613  0.78389722  0.23894741    -0.46450
C111        C  0.41513422  0.78323243  0.28336697     0.75140
O112        O  0.42415510  0.79644270  0.22701598    -0.58310
O113        O  0.41513550  0.76558999  0.27854487    -0.48400
O114        O  0.39803844  0.78138791  0.23333587    -0.54740
C115        C  0.41840475  0.73761838  0.23099249     0.85320
O116        O  0.45436225  0.76163798  0.26038444    -0.56630
O117        O  0.42070644  0.79459087  0.27018396    -0.59920
In118      In  0.35329221  0.82836876  0.37622123     1.36870
C119        C  0.32944753  0.84884068  0.35343143     0.77770
O120        O  0.37558572  0.83118183  0.35278953    -0.60680
O121        O  0.37173907  0.80350017  0.36573533    -0.51590
C122        C  0.37394085  0.84655185  0.40364203     0.70430
O123        O  0.36871163  0.85446151  0.38795921    -0.46450
C124        C  0.32609917  0.80460076  0.39022490     0.75140
O125        O  0.33418010  0.85437870  0.37021041    -0.58310
O126        O  0.33792816  0.79978045  0.37718467    -0.48400
O127        O  0.33679123  0.83287552  0.34858080    -0.54740
C128        C  0.37974596  0.81336707  0.35252304     0.85320
O129        O  0.36922828  0.82889250  0.40504803    -0.56630
O130        O  0.32878415  0.82140767  0.39690260    -0.59920
In131      In  0.58602970  0.77643912  0.24228538     1.36870
C132        C  0.60378177  0.79817316  0.21578995     0.77770
O133        O  0.59325003  0.80072611  0.26246555    -0.60680
O134        O  0.59743942  0.77211302  0.27289435    -0.51590
C135        C  0.54787691  0.77699367  0.24723825     0.70430
O136        O  0.55657617  0.78812613  0.23556057    -0.46450
C137        C  0.59297740  0.74199177  0.22636401     0.75140
O138        O  0.58572960  0.79937983  0.21896542    -0.58310
O139        O  0.60427900  0.74959450  0.23865947    -0.48400
O140        O  0.61256595  0.78581168  0.22616173    -0.54740
C141        C  0.59867979  0.79004059  0.27633140     0.85320
O142        O  0.55889121  0.76571130  0.25675181    -0.56630
O143        O  0.57783438  0.75172140  0.22278965    -0.59920
In144      In  0.65820959  0.83603201  0.37230833     1.36870
C145        C  0.68116971  0.85631799  0.34883923     0.77770
O146        O  0.68427863  0.82960342  0.39085365    -0.60680
O147        O  0.66934878  0.80577826  0.37858853    -0.51590
C148        C  0.63928999  0.85413550  0.40112956     0.70430
O149        O  0.65629618  0.85832770  0.39590521    -0.46450
C150        C  0.63428911  0.82235279  0.34515680     0.75140
O151        O  0.66722876  0.86395808  0.35795213    -0.58310
O152        O  0.64015353  0.81208510  0.35926215    -0.48400
O153        O  0.68302340  0.83834026  0.35158147    -0.54740
C154        C  0.68390092  0.81155718  0.38817650     0.85320
O155        O  0.63187728  0.84024789  0.39181475    -0.56630
O156        O  0.63955610  0.83986467  0.34588512    -0.59920
In157      In  0.42070396  0.07353257  0.49394918     1.36870
C158        C  0.45894037  0.08039983  0.49403213     0.77770
O159        O  0.41359802  0.10170870  0.50843492    -0.60680
O160        O  0.40793410  0.07575985  0.52409508    -0.51590
C161        C  0.40272041  0.08951415  0.46332470     0.70430
O162        O  0.41950583  0.08208505  0.46218220    -0.46450
C163        C  0.41700687  0.03452004  0.49539823     0.75140
O164        O  0.44928848  0.07799261  0.47858486    -0.58310
O165        O  0.40311596  0.04539552  0.49022134    -0.48400
O166        O  0.44876998  0.08036737  0.50923201    -0.54740
C167        C  0.40713429  0.09407612  0.52375700     0.85320
O168        O  0.39479777  0.08752457  0.47968143    -0.56630
O169        O  0.43214857  0.04365363  0.49990121    -0.59920
In170      In  0.42157195  0.91129667  0.49668497     1.36870
C171        C  0.46018834  0.90700393  0.49574470     0.77770
O172        O  0.41108712  0.88352034  0.48331151    -0.60680
O173        O  0.41202160  0.90838551  0.46531167    -0.51590
C174        C  0.40374808  0.89533762  0.52727205     0.70430
O175        O  0.42055294  0.89057898  0.52177613    -0.46450
C176        C  0.41765760  0.95015437  0.49758181     0.75140
O177        O  0.45062465  0.90818359  0.51128224    -0.58310
O178        O  0.40478270  0.93931659  0.49025202    -0.48400
O179        O  0.44986321  0.90769074  0.48053271    -0.54740
C180        C  0.40801733  0.89056312  0.46670028     0.85320
O181        O  0.39616928  0.90891872  0.51744209    -0.56630
O182        O  0.43176435  0.94100697  0.50491003    -0.59920
In183      In  0.58284078  0.91230277  0.49336611     1.36870
C184        C  0.54444057  0.90727252  0.49403841     0.77770
O185        O  0.59013788  0.88413063  0.50844461    -0.60680
O186        O  0.59555541  0.91001334  0.52375326    -0.51590
C187        C  0.60048072  0.89648265  0.46251407     0.70430
O188        O  0.58284297  0.89371159  0.46656282    -0.46450
C189        C  0.58529401  0.95153493  0.49298337     0.75140
O190        O  0.55398200  0.90912831  0.47848718    -0.58310
O191        O  0.60009519  0.94081771  0.49500684    -0.48400
O192        O  0.55472195  0.90766775  0.50932571    -0.54740
C193        C  0.59645935  0.89172801  0.52379135     0.85320
O194        O  0.60892885  0.90822455  0.47372932    -0.56630
O195        O  0.56978347  0.94217096  0.49067943    -0.59920
In196      In  0.58177834  0.07497040  0.49635823     1.36870
C197        C  0.54317245  0.07869437  0.49518915     0.77770
O198        O  0.58612586  0.10215687  0.47895588    -0.60680
O199        O  0.59853223  0.07648117  0.46797756    -0.51590
C200        C  0.59905936  0.09220096  0.52689796     0.70430
O201        O  0.58561933  0.09975226  0.51704914    -0.46450
C202        C  0.58504925  0.03601594  0.49615860     0.75140
O203        O  0.55274058  0.07777455  0.51088720    -0.58310
O204        O  0.59921651  0.04703938  0.49217573    -0.48400
O205        O  0.55345545  0.07745228  0.48006115    -0.54740
C206        C  0.59605573  0.09449829  0.46577666     0.85320
O207        O  0.60337465  0.07523550  0.52163902    -0.56630
O208        O  0.56970925  0.04497846  0.50066209    -0.59920
In209      In  0.41738772  0.21154783  0.24313336     1.36870
C210        C  0.39969818  0.18767123  0.21848759     0.77770
O211        O  0.41440235  0.18865606  0.26580035    -0.60680
O212        O  0.40461978  0.21695749  0.27282045    -0.51590
C213        C  0.45548526  0.20978638  0.24726374     0.70430
O214        O  0.44638507  0.20021187  0.23449971    -0.46450
C215        C  0.40964529  0.24600443  0.22693239     0.75140
O216        O  0.41743047  0.19214913  0.21676671    -0.58310
O217        O  0.39670576  0.23555767  0.23456238    -0.48400
O218        O  0.39126873  0.19552742  0.23262886    -0.54740
C219        C  0.40654246  0.19949295  0.27820366     0.85320
O220        O  0.44487605  0.21989475  0.25827300    -0.56630
O221        O  0.42661224  0.23938073  0.22864668    -0.59920
In222      In  0.34675799  0.15144542  0.37233103     1.36870
C223        C  0.32306814  0.13152703  0.34923833     0.77770
O224        O  0.31737541  0.15514365  0.38538555    -0.60680
O225        O  0.33528007  0.18017295  0.38287520    -0.51590
C226        C  0.36664488  0.13317178  0.40071273     0.70430
O227        O  0.36687913  0.12782749  0.38329030    -0.46450
C228        C  0.37127236  0.16797616  0.34724797     0.75140
O229        O  0.33175242  0.12380939  0.36350176    -0.58310
O230        O  0.36243641  0.17758876  0.36002476    -0.48400
O231        O  0.32671405  0.14926248  0.34681741    -0.54740
C232        C  0.31880909  0.17328236  0.38736154     0.85320
O233        O  0.35684177  0.14835157  0.40352881    -0.56630
O234        O  0.36864549  0.14995140  0.34840302    -0.59920
In235      In  0.57775422  0.21545904  0.24754685     1.36870
C236        C  0.59761586  0.19274203  0.22368448     0.77770
O237        O  0.57078603  0.23835237  0.22551793    -0.60680
O238        O  0.59365377  0.24413505  0.24533338    -0.51590
C239        C  0.53932038  0.21289247  0.24900216     0.70430
O240        O  0.54955797  0.20424487  0.23662478    -0.46450
C241        C  0.58883343  0.20286076  0.28263246     0.75140
O242        O  0.57971313  0.19058783  0.22701667    -0.58310
O243        O  0.58726457  0.22070271  0.27866543    -0.48400
O244        O  0.60545524  0.20659758  0.23273317    -0.54740
C245        C  0.58390040  0.24992127  0.23083768     0.85320
O246        O  0.54887615  0.22290749  0.26104857    -0.56630
O247        O  0.58453906  0.19181676  0.26875605    -0.59920
In248      In  0.65123528  0.15905648  0.37703199     1.36870
C249        C  0.67589124  0.13968791  0.35459551     0.77770
O250        O  0.63044462  0.15458497  0.35246869    -0.60680
O251        O  0.63064347  0.18219539  0.36588589    -0.51590
C252        C  0.63132478  0.13913025  0.40372453     0.70430
O253        O  0.64017985  0.13135740  0.38981613    -0.46450
C254        C  0.67746826  0.18368726  0.39175418     0.75140
O255        O  0.67158270  0.13407403  0.37147547    -0.58310
O256        O  0.66600167  0.18813058  0.37815197    -0.48400
O257        O  0.66782193  0.15530195  0.34950350    -0.54740
C258        C  0.62434092  0.17183631  0.35214178     0.85320
O259        O  0.63203881  0.15745758  0.40368716    -0.56630
O260        O  0.67470753  0.16696854  0.39866309    -0.59920
In261      In  0.75391020  0.40976235  0.77901487     1.36870
C262        C  0.77736836  0.39012102  0.80273858     0.77770
O263        O  0.72976175  0.40843489  0.80082359    -0.60680
O264        O  0.72613944  0.39305722  0.77445353    -0.51590
C265        C  0.74911375  0.44776191  0.77881504     0.70430
O266        O  0.76029660  0.43904566  0.79050864    -0.46450
C267        C  0.77259999  0.40517115  0.74537760     0.75140
O268        O  0.77645924  0.40836825  0.80258368    -0.58310
O269        O  0.75592175  0.39805324  0.74838737    -0.48400
O270        O  0.76602864  0.38192204  0.79090002    -0.54740
C271        C  0.71907284  0.39748085  0.79076851     0.85320
O272        O  0.73976907  0.43686774  0.76740976    -0.56630
O273        O  0.77935066  0.41461160  0.75945361    -0.59920
In274      In  0.62502509  0.33712863  0.83870869     1.36870
C275        C  0.64909370  0.31541376  0.86030488     0.77770
O276        O  0.60862176  0.30920202  0.83353553    -0.60680
O277        O  0.61911454  0.32469279  0.80917825    -0.51590
C278        C  0.59687205  0.35786464  0.85592241     0.70430
O279        O  0.61161174  0.35135614  0.86467249    -0.46450
C280        C  0.64987008  0.36142096  0.82168181     0.75140
O281        O  0.63107106  0.31641462  0.86353091    -0.58310
O282        O  0.64016934  0.34889635  0.81254364    -0.48400
O283        O  0.65463154  0.32550538  0.84614524    -0.54740
C284        C  0.61078669  0.30966108  0.81537277     0.85320
O285        O  0.59682358  0.35448623  0.83792784    -0.56630
O286        O  0.64560212  0.36269196  0.83947664    -0.59920
In287      In  0.74896595  0.56957605  0.77355433     1.36870
C288        C  0.77157775  0.59033027  0.79670304     0.77770
O289        O  0.77481645  0.56662325  0.75454559    -0.60680
O290        O  0.75009664  0.58065908  0.74244298    -0.51590
C291        C  0.74726741  0.53119369  0.77551732     0.70430
O292        O  0.75945149  0.54123721  0.78469320    -0.46450
C293        C  0.71472948  0.58213125  0.78656200     0.75140
O294        O  0.76819277  0.57254241  0.79937244    -0.58310
O295        O  0.71848540  0.58148722  0.76861586    -0.48400
O296        O  0.76318532  0.59765732  0.78202250    -0.54740
C297        C  0.76749755  0.57511813  0.74006507     0.85320
O298        O  0.73538557  0.54090088  0.76535953    -0.56630
O299        O  0.72817861  0.57589186  0.79736283    -0.59920
In300      In  0.61975388  0.64443475  0.82935607     1.36870
C301        C  0.64268559  0.66862054  0.84892989     0.77770
O302        O  0.64597206  0.62571018  0.83411437    -0.60680
O303        O  0.63096719  0.62284998  0.80741039    -0.51590
C304        C  0.59168542  0.62557988  0.84852448     0.70430
O305        O  0.60330710  0.63732753  0.85630959    -0.46450
C306        C  0.60388056  0.67014424  0.80481731     0.75140
O307        O  0.62989123  0.65831663  0.85702883    -0.58310
O308        O  0.61712468  0.65850880  0.79999377    -0.48400
O309        O  0.64347327  0.66673112  0.83076073    -0.54740
C310        C  0.64569972  0.61830314  0.81744223     0.85320
O311        O  0.59451296  0.62312267  0.83058263    -0.56630
O312        O  0.59797597  0.66790937  0.82198152    -0.59920
In313      In  0.74904946  0.41728724  0.21677154     1.36870
C314        C  0.77117768  0.39725724  0.19236916     0.77770
O315        O  0.77642808  0.41782389  0.23426812    -0.60680
O316        O  0.75032767  0.41040738  0.24888591    -0.51590
C317        C  0.74693386  0.45566752  0.21557260     0.70430
O318        O  0.75546940  0.44573392  0.20285552    -0.46450
C319        C  0.71360447  0.40403192  0.20756968     0.75140
O320        O  0.76692931  0.41485874  0.18971509    -0.58310
O321        O  0.72324671  0.39764128  0.22184831    -0.48400
O322        O  0.76370978  0.38979778  0.20733390    -0.54740
C323        C  0.76856929  0.41272858  0.24998646     0.85320
O324        O  0.73930562  0.44586672  0.22906791    -0.56630
O325        O  0.72192509  0.41749019  0.19844314    -0.59920
In326      In  0.61885987  0.34355668  0.16135093     1.36870
C327        C  0.64176897  0.32043103  0.14042119     0.77770
O328        O  0.63863892  0.36968722  0.16072709    -0.60680
O329        O  0.63517337  0.35444258  0.18726782    -0.51590
C330        C  0.59151068  0.36449507  0.14306075     0.70430
O331        O  0.60756402  0.35996075  0.13558325    -0.46450
C332        C  0.60310971  0.31714648  0.18475907     0.75140
O333        O  0.62412614  0.32329628  0.13627457    -0.58310
O334        O  0.61146916  0.33214829  0.19100825    -0.48400
O335        O  0.64760349  0.32950836  0.15511626    -0.54740
C336        C  0.64388493  0.36775127  0.17822610     0.85320
O337        O  0.58975875  0.35919064  0.16053920    -0.56630
O338        O  0.60170105  0.31629141  0.16652329    -0.59920
In339      In  0.75419273  0.57722872  0.21167732     1.36870
C340        C  0.77863499  0.59671908  0.18925300     0.77770
O341        O  0.73297067  0.58332873  0.18792888    -0.60680
O342        O  0.72416219  0.58986967  0.21666411    -0.51590
C343        C  0.74876342  0.53915522  0.21177269     0.70430
O344        O  0.75718287  0.54802678  0.19815028    -0.46450
C345        C  0.77311959  0.58365504  0.24475709     0.75140
O346        O  0.77838027  0.57841603  0.18998848    -0.58310
O347        O  0.75666822  0.59119012  0.24118090    -0.48400
O348        O  0.76637492  0.60495573  0.20008080    -0.54740
C349        C  0.71991752  0.59008806  0.19878727     0.85320
O350        O  0.74260924  0.54993069  0.22517669    -0.56630
O351        O  0.77942901  0.57278247  0.23154817    -0.59920
In352      In  0.62385926  0.65077066  0.15326379     1.36870
C353        C  0.64441095  0.67437310  0.13047726     0.77770
O354        O  0.60034095  0.66893364  0.16718024    -0.60680
O355        O  0.62783483  0.66673464  0.18114297    -0.51590
C356        C  0.59439283  0.63237608  0.13565990     0.70430
O357        O  0.59911988  0.64961895  0.13186054    -0.46450
C358        C  0.65120603  0.62684849  0.16675470     0.75140
O359        O  0.64032651  0.65721777  0.12568162    -0.58310
O360        O  0.63610696  0.63080331  0.17643533    -0.48400
O361        O  0.63711955  0.67957996  0.14633778    -0.54740
C362        C  0.61122294  0.67452491  0.18087152     0.85320
O363        O  0.60463327  0.62449275  0.14876151    -0.56630
O364        O  0.65135687  0.63401265  0.14990381    -0.59920
In365      In  0.25425718  0.41785971  0.77349409     1.36870
C366        C  0.23178658  0.39794742  0.79778822     0.77770
O367        O  0.22689564  0.41734009  0.75597813    -0.60680
O368        O  0.25325214  0.41170936  0.74118230    -0.51590
C369        C  0.25737025  0.45613120  0.77573073     0.70430
O370        O  0.25032454  0.44580961  0.78911089    -0.46450
C371        C  0.28953654  0.40421486  0.78269089     0.75140
O372        O  0.23147512  0.41619606  0.79662554    -0.58310
O373        O  0.27980122  0.39796844  0.76844694    -0.48400
O374        O  0.24387108  0.38990484  0.78665275    -0.54740
C375        C  0.23493335  0.41326351  0.74012147     0.85320
O376        O  0.26328503  0.44672524  0.76120390    -0.56630
O377        O  0.28142838  0.41783537  0.79174007    -0.59920
In378      In  0.38378624  0.34296869  0.83113654     1.36870
C379        C  0.36106192  0.32252445  0.85472141     0.77770
O380        O  0.36657678  0.37073917  0.82778084    -0.60680
O381        O  0.36355676  0.34910703  0.80624584    -0.51590
C382        C  0.41215178  0.36172828  0.85018043     0.70430
O383        O  0.39757942  0.35435744  0.85835700    -0.46450
C384        C  0.39786294  0.31503326  0.80839907     0.75140
O385        O  0.37924011  0.32006978  0.85377723    -0.58310
O386        O  0.39859516  0.33266989  0.80339435    -0.48400
O387        O  0.35464173  0.33619077  0.84426450    -0.54740
C388        C  0.35805962  0.36539309  0.81241498     0.85320
O389        O  0.41202343  0.36008329  0.83194761    -0.56630
O390        O  0.39093422  0.31225580  0.82502584    -0.59920
In391      In  0.24897533  0.57768239  0.77887378     1.36870
C392        C  0.22346334  0.59607140  0.80099217     0.77770
O393        O  0.26886923  0.58699891  0.80269539    -0.60680
O394        O  0.27920449  0.59013281  0.77396797    -0.51590
C395        C  0.25476410  0.53959944  0.77953628     0.70430
O396        O  0.24389191  0.54820580  0.79142365    -0.46450
C397        C  0.23099614  0.58287453  0.74497357     0.75140
O398        O  0.22838413  0.57865058  0.80394116    -0.58310
O399        O  0.24628801  0.59203883  0.74952395    -0.48400
O400        O  0.23149497  0.60397569  0.78652271    -0.54740
C401        C  0.28248204  0.59251221  0.79184861     0.85320
O402        O  0.26315543  0.55062759  0.76755503    -0.56630
O403        O  0.22526773  0.57102331  0.75770092    -0.59920
In404      In  0.37982723  0.65046885  0.83804540     1.36870
C405        C  0.35635075  0.67259708  0.85901490     0.77770
O406        O  0.39511695  0.67824816  0.83245665    -0.60680
O407        O  0.38785476  0.66122063  0.80792621    -0.51590
C408        C  0.40945684  0.63198564  0.85581012     0.70430
O409        O  0.40350525  0.64850713  0.86058362    -0.46450
C410        C  0.35187024  0.62817409  0.82332349     0.75140
O411        O  0.36323532  0.65683672  0.86553197    -0.58310
O412        O  0.36609415  0.63394063  0.81326210    -0.48400
O413        O  0.36122275  0.67659163  0.84186245    -0.54740
C414        C  0.39436144  0.67713081  0.81423386     0.85320
O415        O  0.40035731  0.62481013  0.84163756    -0.56630
O416        O  0.35283296  0.63273797  0.84100109    -0.59920
In417      In  0.50018980  0.41348141  0.07613369     1.36870
C418        C  0.50114316  0.45218375  0.07820301     0.77770
O419        O  0.51527850  0.40816141  0.10473178    -0.60680
O420        O  0.52768865  0.39582346  0.07952390    -0.51590
C421        C  0.47081184  0.39487251  0.09328851     0.70430
O422        O  0.47534151  0.41218622  0.09697402    -0.46450
C423        C  0.50071979  0.40916642  0.03736246     0.75140
O424        O  0.48559759  0.44275357  0.07598998    -0.58310
O425        O  0.51589284  0.41003566  0.04768327    -0.48400
O426        O  0.51617557  0.44177245  0.07941779    -0.54740
C427        C  0.52883812  0.39814649  0.09765403     0.85320
O428        O  0.48104735  0.38709470  0.08021159    -0.56630
O429        O  0.48512465  0.40983568  0.04699693    -0.59920
In430      In  0.50373287  0.41325873  0.91419868     1.36870
C431        C  0.50355191  0.45197411  0.91288758     0.77770
O432        O  0.48365746  0.41147745  0.88851430    -0.60680
O433        O  0.48058959  0.39028595  0.91066540    -0.51590
C434        C  0.53329653  0.39591930  0.89583820     0.70430
O435        O  0.52405351  0.41011261  0.88883859    -0.46450
C436        C  0.50241526  0.40927704  0.95295231     0.75140
O437        O  0.51902262  0.44215696  0.91397450    -0.58310
O438        O  0.48737074  0.40915686  0.94234645    -0.48400
O439        O  0.48825306  0.44192632  0.91244952    -0.54740
C440        C  0.47468969  0.39668771  0.89446321     0.85320
O441        O  0.52753354  0.39062087  0.91240843    -0.56630
O442        O  0.51812794  0.41090113  0.94361326    -0.59920
In443      In  0.50145637  0.57447266  0.91474278     1.36870
C444        C  0.50268623  0.53585101  0.91339321     0.77770
O445        O  0.51989787  0.57620756  0.88776136    -0.60680
O446        O  0.52569984  0.59592597  0.91052718    -0.51590
C447        C  0.47175183  0.59230095  0.89692066     0.70430
O448        O  0.47641277  0.57493047  0.89370371    -0.46450
C449        C  0.50153859  0.57851978  0.95351138     0.75140
O450        O  0.48698211  0.54535075  0.91319221    -0.58310
O451        O  0.51684621  0.57805701  0.94348501    -0.48400
O452        O  0.51780182  0.54618548  0.91424463    -0.54740
C453        C  0.53017529  0.59009409  0.89379082     0.85320
O454        O  0.48215195  0.60051433  0.90961834    -0.56630
O455        O  0.48608322  0.57736949  0.94360676    -0.59920
In456      In  0.50292457  0.57469027  0.07665092     1.36870
C457        C  0.50233610  0.53603350  0.07882571     0.77770
O458        O  0.48574556  0.57766536  0.10427614    -0.60680
O459        O  0.47690639  0.59423498  0.07979068    -0.51590
C460        C  0.53254498  0.59269144  0.09429145     0.70430
O461        O  0.52966097  0.57467794  0.09558783    -0.46450
C462        C  0.50208745  0.57893844  0.03782912     0.75140
O463        O  0.51768232  0.54556296  0.07574420    -0.58310
O464        O  0.48712321  0.57574343  0.04785938    -0.48400
O465        O  0.48735185  0.54635429  0.08099267    -0.54740
C466        C  0.47378821  0.58975536  0.09729369     0.85320
O467        O  0.52041890  0.60149351  0.08357303    -0.56630
O468        O  0.51747580  0.58056238  0.04775296    -0.59920
In469      In  0.25007361  0.41010783  0.21293647     1.36870
C470        C  0.22664638  0.39244060  0.18819361     0.77770
O471        O  0.27354250  0.40824512  0.19068769    -0.60680
O472        O  0.27755924  0.39242766  0.21690613    -0.51590
C473        C  0.25385163  0.44837436  0.21356323     0.70430
O474        O  0.24480128  0.43953379  0.20036491    -0.46450
C475        C  0.23149388  0.40130496  0.24572904     0.75140
O476        O  0.22488758  0.41021823  0.19225669    -0.58310
O477        O  0.24974188  0.40356489  0.24539589    -0.48400
O478        O  0.24047348  0.38378111  0.19681511    -0.54740
C479        C  0.28415025  0.39679192  0.20034493     0.85320
O480        O  0.26113190  0.43753320  0.22643806    -0.56630
O481        O  0.22322109  0.40353891  0.22958604    -0.59920
In482      In  0.37947281  0.33721959  0.15271540     1.36870
C483        C  0.35448558  0.31603657  0.13247355     0.77770
O484        O  0.38903218  0.30717439  0.15976796    -0.60680
O485        O  0.39408616  0.32880361  0.18109418    -0.51590
C486        C  0.40910355  0.35472019  0.13433231     0.70430
O487        O  0.40239322  0.33850641  0.12933610    -0.46450
C488        C  0.35234103  0.36036400  0.16779764     0.75140
O489        O  0.36397909  0.32977659  0.12480846    -0.58310
O490        O  0.36449487  0.35121630  0.17811233    -0.48400
O491        O  0.35770516  0.31355619  0.15033210    -0.54740
C492        C  0.39442003  0.31102754  0.17678551     0.85320
O493        O  0.40088633  0.36181357  0.14901494    -0.56630
O494        O  0.35501748  0.35869791  0.14979661    -0.59920
In495      In  0.25510242  0.57024652  0.21725462     1.36870
C496        C  0.23161642  0.59036891  0.19418184     0.77770
O497        O  0.22839359  0.57139153  0.23531405    -0.60680
O498        O  0.25490729  0.57904260  0.24909218    -0.51590
C499        C  0.25667172  0.53181299  0.21571528     0.70430
O500        O  0.24759366  0.54209832  0.20360416    -0.46450
C501        C  0.28985438  0.58214731  0.20462898     0.75140
O502        O  0.23284616  0.57213186  0.19384243    -0.58310
O503        O  0.28467558  0.58405324  0.22208693    -0.48400
O504        O  0.24277887  0.59849691  0.20634049    -0.54740
C505        C  0.23666199  0.57714274  0.25055572     0.85320
O506        O  0.26537490  0.54128398  0.22874726    -0.56630
O507        O  0.27739925  0.57400109  0.19400074    -0.59920
In508      In  0.38400330  0.64426768  0.16059563     1.36870
C509        C  0.36203118  0.66895906  0.14032755     0.77770
O510        O  0.35949493  0.62351610  0.15596951    -0.60680
O511        O  0.37273985  0.62406727  0.18382187    -0.51590
C512        C  0.41126745  0.62414316  0.14181189     0.70430
O513        O  0.39728529  0.63265857  0.13347371    -0.46450
C514        C  0.39809877  0.67045014  0.18543730     0.75140
O515        O  0.37918027  0.66475997  0.13535765    -0.58310
O516        O  0.38343392  0.66012049  0.18897830    -0.48400
O517        O  0.35645190  0.66066602  0.15561632    -0.54740
C518        C  0.35901966  0.61772702  0.17334558     0.85320
O519        O  0.41095580  0.62526346  0.16012254    -0.56630
O520        O  0.40629493  0.66661570  0.16957121    -0.59920
In521      In  0.78466766  0.74545425  0.41103035     1.36870
C522        C  0.80777829  0.76995717  0.39258893     0.77770
O523        O  0.80856626  0.72552142  0.40235649    -0.60680
O524        O  0.77980951  0.71491193  0.39950113    -0.51590
C525        C  0.78426628  0.74084118  0.44924007     0.70430
O526        O  0.79676569  0.75102556  0.44058657    -0.46450
C527        C  0.75128564  0.76416079  0.40516295     0.75140
O528        O  0.81092706  0.76444213  0.40981830    -0.58310
O529        O  0.75509407  0.74829967  0.39678151    -0.48400
O530        O  0.79257479  0.76307229  0.38484305    -0.54740
C531        C  0.79779972  0.71167020  0.39742054     0.85320
O532        O  0.77221809  0.73251809  0.43822891    -0.56630
O533        O  0.76450803  0.77009030  0.41642152    -0.59920
In534      In  0.84327018  0.61578869  0.33974546     1.36870
C535        C  0.86326816  0.63886186  0.31609290     0.77770
O536        O  0.83693552  0.59718340  0.31374578    -0.60680
O537        O  0.81359486  0.61278542  0.32604963    -0.51590
C538        C  0.86120865  0.58808214  0.36054346     0.70430
O539        O  0.87010326  0.60110562  0.35132425    -0.46450
C540        C  0.83012258  0.64171036  0.36485307     0.75140
O541        O  0.86877803  0.62184039  0.32010837    -0.58310
O542        O  0.81968432  0.62785114  0.35893059    -0.48400
O543        O  0.84754706  0.64379856  0.32401954    -0.54740
C544        C  0.81925156  0.60193593  0.31255964     0.85320
O545        O  0.84289420  0.58953552  0.35971701    -0.56630
O546        O  0.84770762  0.64087700  0.35960685    -0.59920
In547      In  0.78017203  0.74129969  0.57105282     1.36870
C548        C  0.80521726  0.76297850  0.59073208     0.77770
O549        O  0.76339200  0.76901127  0.57130952    -0.60680
O550        O  0.74768096  0.74304062  0.57646124    -0.51590
C551        C  0.78152605  0.73938334  0.53272629     0.70430
O552        O  0.79416546  0.74799376  0.54279932    -0.46450
C553        C  0.78940387  0.70614059  0.58490564     0.75140
O554        O  0.80769256  0.75857632  0.57317495    -0.58310
O555        O  0.77538201  0.71595216  0.59147082    -0.48400
O556        O  0.79011287  0.75585954  0.59832701    -0.54740
C557        C  0.74718658  0.76133395  0.57509319     0.85320
O558        O  0.76797023  0.73162693  0.54236501    -0.56630
O559        O  0.79805899  0.71407499  0.57092999    -0.59920
In560      In  0.83578446  0.61130349  0.64634332     1.36870
C561        C  0.85606254  0.63670505  0.66718980     0.77770
O562        O  0.83674051  0.63281525  0.62164449    -0.60680
O563        O  0.80968317  0.62765697  0.63549928    -0.51590
C564        C  0.85452350  0.58198435  0.62900525     0.70430
O565        O  0.85947256  0.58902815  0.64508586    -0.46450
C566        C  0.81351492  0.59384276  0.67262734     0.75140
O567        O  0.86365915  0.62712762  0.65359402    -0.58310
O568        O  0.80714474  0.59812400  0.65591669    -0.48400
O569        O  0.83817092  0.63360541  0.66951608    -0.54740
C570        C  0.81898828  0.63741701  0.62312203     0.85320
O571        O  0.83959713  0.58984758  0.62160493    -0.56630
O572        O  0.83140286  0.59713604  0.67503113    -0.59920
In573      In  0.22533076  0.74123967  0.41850190     1.36870
C574        C  0.20321904  0.76643255  0.39936714     0.77770
O575        O  0.24801214  0.76360232  0.42528191    -0.60680
O576        O  0.25374344  0.74395418  0.40245354    -0.51590
C577        C  0.22214713  0.73719797  0.45663858     0.70430
O578        O  0.21051121  0.74717173  0.44651393    -0.46450
C579        C  0.21265287  0.70733151  0.40476347     0.75140
O580        O  0.20211125  0.76403446  0.41750566    -0.58310
O581        O  0.23026907  0.70987855  0.40946638    -0.48400
O582        O  0.21600946  0.75619353  0.39117265    -0.54740
C583        C  0.25945273  0.75848208  0.41200860     0.85320
O584        O  0.23528580  0.72872609  0.44707693    -0.56630
O585        O  0.20187695  0.72175268  0.40777199    -0.59920
In586      In  0.16766758  0.61105571  0.34503839     1.36870
C587        C  0.14723337  0.63498692  0.32263538     0.77770
O588        O  0.16448571  0.63795996  0.36249165    -0.60680
O589        O  0.19202616  0.62391139  0.36321985    -0.51590
C590        C  0.14815140  0.58240342  0.36292203     0.70430
O591        O  0.14513053  0.58765689  0.34571554    -0.46450
C592        C  0.19095135  0.59544341  0.31838865     0.75140
O593        O  0.13958393  0.62560839  0.33644223    -0.58310
O594        O  0.19749055  0.60072784  0.33470203    -0.48400
O595        O  0.16536012  0.63254436  0.32091136    -0.54740
C596        C  0.18194574  0.63841415  0.36820807     0.85320
O597        O  0.16168651  0.59159580  0.37120033    -0.56630
O598        O  0.17275318  0.59672993  0.31676400    -0.59920
In599      In  0.21940265  0.74518964  0.57822305     1.36870
C600        C  0.19602963  0.76962004  0.59638093     0.77770
O601        O  0.19595020  0.72556546  0.58841279    -0.60680
O602        O  0.22484941  0.71507204  0.59084996    -0.51590
C603        C  0.21865859  0.73980578  0.54009420     0.70430
O604        O  0.20775270  0.75169069  0.54864414    -0.46450
C605        C  0.25285582  0.76386979  0.58350196     0.75140
O606        O  0.19216669  0.76289521  0.57979151    -0.58310
O607        O  0.24917700  0.74798758  0.59198807    -0.48400
O608        O  0.21199557  0.76392124  0.60362495    -0.54740
C609        C  0.20695119  0.71194762  0.59368650     0.85320
O610        O  0.22984298  0.73032913  0.55118328    -0.56630
O611        O  0.23957349  0.76974650  0.57222391    -0.59920
In612      In  0.15967074  0.61552314  0.65148869     1.36870
C613        C  0.13783408  0.63770922  0.67430720     0.77770
O614        O  0.16850162  0.59371090  0.67425568    -0.60680
O615        O  0.18944141  0.61430653  0.66515443    -0.51590
C616        C  0.14129893  0.58732014  0.63193843     0.70430
O617        O  0.13576214  0.59366258  0.64809567    -0.46450
C618        C  0.17432860  0.64312155  0.62881246     0.75140
O619        O  0.13247729  0.63284845  0.65747267    -0.58310
O620        O  0.18337679  0.62744930  0.63201470    -0.48400
O621        O  0.15400854  0.63073112  0.67949550    -0.54740
C622        C  0.18532693  0.60068042  0.67666751     0.85320
O623        O  0.15660841  0.59526920  0.62570594    -0.56630
O624        O  0.15746136  0.64372789  0.63592177    -0.59920
In625      In  0.77935228  0.24623432  0.41875096     1.36870
C626        C  0.80359567  0.22367174  0.39888782     0.77770
O627        O  0.75778723  0.22244464  0.42433404    -0.60680
O628        O  0.74966171  0.24464773  0.40460544    -0.51590
C629        C  0.78019752  0.24704954  0.45720180     0.70430
O630        O  0.78944278  0.23493577  0.44718039    -0.46450
C631        C  0.78967933  0.28166890  0.40668464     0.75140
O632        O  0.80663514  0.22855934  0.41620985    -0.58310
O633        O  0.77287582  0.27477865  0.40396657    -0.48400
O634        O  0.78826145  0.23068091  0.39157983    -0.54740
C635        C  0.74503993  0.22892300  0.41282112     0.85320
O636        O  0.77046808  0.25926508  0.44742414    -0.56630
O637        O  0.80090966  0.27067453  0.41618509    -0.59920
In638      In  0.83631733  0.37591764  0.34538148     1.36870
C639        C  0.85752093  0.35163595  0.32410838     0.77770
O640        O  0.83628051  0.35729809  0.37243474    -0.60680
O641        O  0.81078032  0.35810436  0.35497607    -0.51590
C642        C  0.85557989  0.40361518  0.36470866     0.70430
O643        O  0.86376039  0.38939597  0.35677262    -0.46450
C644        C  0.81419643  0.39214644  0.31766099     0.75140
O645        O  0.86118838  0.36949510  0.32532951    -0.58310
O646        O  0.80787783  0.38911341  0.33457425    -0.48400
O647        O  0.84325320  0.34615630  0.33415381    -0.54740
C648        C  0.81932136  0.35076135  0.36950690     0.85320
O649        O  0.83722054  0.40332433  0.36357272    -0.56630
O650        O  0.83181956  0.38773440  0.31545920    -0.59920
In651      In  0.78474054  0.24162554  0.57916182     1.36870
C652        C  0.81020391  0.21921518  0.59753460     0.77770
O653        O  0.80436846  0.26757577  0.57980717    -0.60680
O654        O  0.78120978  0.26648087  0.60001552    -0.51590
C655        C  0.78311221  0.24469320  0.54086970     0.70430
O656        O  0.79383919  0.23260461  0.54960641    -0.46450
C657        C  0.75176960  0.22195602  0.58453483     0.75140
O658        O  0.81279107  0.22488257  0.58028095    -0.58310
O659        O  0.75227780  0.24026824  0.58556320    -0.48400
O660        O  0.79497899  0.22565908  0.60546759    -0.54740
C661        C  0.79587197  0.27562892  0.59380268     0.85320
O662        O  0.77325178  0.25549954  0.55184936    -0.56630
O663        O  0.76786119  0.21419412  0.58054745    -0.59920
In664      In  0.84284512  0.37137178  0.65260962     1.36870
C665        C  0.86339666  0.34637344  0.67408875     0.77770
O666        O  0.83767835  0.38823338  0.67996864    -0.60680
O667        O  0.81326345  0.38124898  0.66239204    -0.51590
C668        C  0.86036379  0.40061891  0.63362589     0.70430
O669        O  0.86679200  0.39321882  0.64911196    -0.46450
C670        C  0.82684405  0.34464301  0.62977944     0.75140
O671        O  0.87090511  0.35600464  0.66044550    -0.58310
O672        O  0.81735850  0.35431653  0.64198681    -0.48400
O673        O  0.84554500  0.34955507  0.67654557    -0.54740
C674        C  0.81938211  0.38821461  0.67816735     0.85320
O675        O  0.84451607  0.39327834  0.62786680    -0.56630
O676        O  0.84445951  0.34964294  0.62809934    -0.59920
In677      In  0.08263833  0.49221860  0.41503761     1.36870
C678        C  0.08408309  0.49229545  0.45385091     0.77770
O679        O  0.10101741  0.51938222  0.41743589    -0.60680
O680        O  0.09167329  0.51080741  0.38962073    -0.51590
C681        C  0.09982922  0.46126381  0.39887746     0.70430
O682        O  0.10479013  0.46790219  0.41516474    -0.46450
C683        C  0.04390182  0.49170580  0.41023189     0.75140
O684        O  0.09843352  0.48733151  0.44360296    -0.58310
O685        O  0.05402439  0.50693356  0.40844528    -0.48400
O686        O  0.06923630  0.49717238  0.44422630    -0.54740
C687        C  0.10155181  0.52259325  0.39946603     0.85320
O688        O  0.08548443  0.46991040  0.39132499    -0.56630
O689        O  0.05377525  0.47660405  0.41388568    -0.59920
In690      In  0.92037286  0.49494829  0.41555102     1.36870
C691        C  0.91946108  0.49476093  0.45432348     0.77770
O692        O  0.89379045  0.47616250  0.41279417    -0.60680
O693        O  0.91718250  0.47084125  0.39361735    -0.51590
C694        C  0.90220145  0.52498743  0.39862723     0.70430
O695        O  0.89729463  0.51823652  0.41490890    -0.46450
C696        C  0.95921185  0.49353320  0.41123978     0.75140
O697        O  0.92462293  0.50936425  0.44456246    -0.58310
O698        O  0.94895519  0.47858418  0.41403444    -0.48400
O699        O  0.91476962  0.48030447  0.44422356    -0.54740
C700        C  0.90027817  0.46609449  0.39903362     0.85320
O701        O  0.91653386  0.51645310  0.39106041    -0.56630
O702        O  0.94947320  0.50903717  0.41019726    -0.59920
In703      In  0.92058813  0.49217774  0.57699217     1.36870
C704        C  0.91993461  0.49322286  0.53828407     0.77770
O705        O  0.89760610  0.51565174  0.57541821    -0.60680
O706        O  0.91307816  0.51210265  0.60174563    -0.51590
C707        C  0.90245789  0.46224593  0.59411496     0.70430
O708        O  0.89649917  0.46995225  0.57854755    -0.46450
C709        C  0.95951895  0.49190995  0.58126957     0.75140
O710        O  0.91413444  0.47874808  0.54793027    -0.58310
O711        O  0.94920560  0.50685357  0.58374754    -0.48400
O712        O  0.92592289  0.50714275  0.54850260    -0.54740
C713        C  0.89991384  0.52117881  0.59267334     0.85320
O714        O  0.91800064  0.46957503  0.60061941    -0.56630
O715        O  0.94980050  0.47692345  0.57719662    -0.59920
In716      In  0.08295668  0.49445420  0.57656655     1.36870
C717        C  0.08459862  0.49396188  0.53780662     0.77770
O718        O  0.10338261  0.46863751  0.57461416    -0.60680
O719        O  0.09147525  0.47540926  0.60186535    -0.51590
C720        C  0.09919305  0.52590481  0.59274896     0.70430
O721        O  0.10195136  0.52128228  0.57529818    -0.46450
C722        C  0.04420625  0.49397995  0.58123685     0.75140
O723        O  0.09908445  0.49842731  0.54821043    -0.58310
O724        O  0.05456010  0.47879021  0.58140712    -0.48400
O725        O  0.06949540  0.48982949  0.54727558    -0.54740
C726        C  0.10277581  0.46465309  0.59243525     0.85320
O727        O  0.08745532  0.51496565  0.60151906    -0.56630
O728        O  0.05382691  0.50948189  0.57912341    -0.59920
In729      In  0.21947164  0.24096155  0.41151751     1.36870
C730        C  0.19468431  0.21905740  0.39177489     0.77770
O731        O  0.19919068  0.26636345  0.41086169    -0.60680
O732        O  0.22395891  0.26754443  0.39270447    -0.51590
C733        C  0.22057441  0.24348924  0.44993856     0.70430
O734        O  0.20841006  0.23319515  0.44091838    -0.46450
C735        C  0.25217773  0.22099939  0.40598160     0.75140
O736        O  0.19235509  0.22302086  0.40949038    -0.58310
O737        O  0.25156579  0.23924991  0.40412438    -0.48400
O738        O  0.20942421  0.22682151  0.38408770    -0.54740
C739        C  0.20852838  0.27578596  0.39828800     0.85320
O740        O  0.23221299  0.25269900  0.43917730    -0.56630
O741        O  0.23627932  0.21337618  0.41093875    -0.59920
In742      In  0.15921122  0.37105676  0.33978535     1.36870
C743        C  0.13352155  0.34962888  0.32064024     0.77770
O744        O  0.17141635  0.36838522  0.31023741    -0.60680
O745        O  0.18331022  0.39054294  0.32775300    -0.51590
C746        C  0.14109745  0.40008129  0.35848081     0.70430
O747        O  0.13373271  0.39099293  0.34449284    -0.46450
C748        C  0.17749080  0.34507094  0.36216929     0.75140
O749        O  0.13698095  0.36707202  0.31620132    -0.58310
O750        O  0.18583038  0.35405357  0.34857282    -0.48400
O751        O  0.14212918  0.34373405  0.33578361    -0.54740
C752        C  0.18339904  0.38204267  0.31152294     0.85320
O753        O  0.15809566  0.39456888  0.36283593    -0.56630
O754        O  0.16014136  0.35038629  0.36511503    -0.59920
In755      In  0.22428313  0.24576945  0.57219646     1.36870
C756        C  0.19798298  0.22539123  0.59165054     0.77770
O757        O  0.24035895  0.21821543  0.57772275    -0.60680
O758        O  0.25709344  0.24395185  0.57660220    -0.51590
C759        C  0.22361491  0.24626022  0.53366752     0.70430
O760        O  0.21154910  0.23695743  0.54380840    -0.46450
C761        C  0.21507307  0.28095395  0.58547070     0.75140
O762        O  0.19751181  0.22720007  0.57341015    -0.58310
O763        O  0.22915805  0.27117263  0.59211983    -0.48400
O764        O  0.21171121  0.23440797  0.59985365    -0.54740
C765        C  0.25695033  0.22580159  0.57915523     0.85320
O766        O  0.23613569  0.25555770  0.54334448    -0.56630
O767        O  0.20637355  0.27307881  0.57144962    -0.59920
In768      In  0.16752929  0.37488117  0.64662461     1.36870
C769        C  0.14718402  0.34969934  0.66773425     0.77770
O770        O  0.16744364  0.35420317  0.62132616    -0.60680
O771        O  0.19349165  0.35742859  0.63762711    -0.51590
C772        C  0.14866044  0.40375761  0.62856310     0.70430
O773        O  0.14336837  0.39650714  0.64447214    -0.46450
C774        C  0.18940070  0.39350886  0.67247308     0.75140
O775        O  0.14001789  0.35799778  0.65298101    -0.58310
O776        O  0.19600455  0.38856857  0.65611432    -0.48400
O777        O  0.16467359  0.35396353  0.67108636    -0.54740
C778        C  0.18477512  0.34866818  0.62413401     0.85320
O779        O  0.16398405  0.39633120  0.62171575    -0.56630
O780        O  0.17149653  0.39022462  0.67467244    -0.59920
In781      In  0.07858447  0.71501183  0.74753048     1.36870
C782        C  0.09709476  0.69185197  0.72315949     0.77770
O783        O  0.07329095  0.73770702  0.72484689    -0.60680
O784        O  0.09577483  0.74287245  0.74532356    -0.51590
C785        C  0.04038699  0.71282707  0.75222052     0.70430
O786        O  0.05027588  0.69969213  0.74427069    -0.46450
C787        C  0.09058119  0.70215944  0.78207765     0.75140
O788        O  0.07916266  0.69556628  0.72147156    -0.58310
O789        O  0.08902457  0.72009410  0.77842289    -0.48400
O790        O  0.10559501  0.70068838  0.73676128    -0.54740
C791        C  0.08660005  0.74889630  0.73053761     0.85320
O792        O  0.05018738  0.72707586  0.75825237    -0.56630
O793        O  0.08542325  0.69129719  0.76836356    -0.59920
In794      In  0.15198762  0.65840484  0.87769801     1.36870
C795        C  0.17342471  0.63815967  0.85295787     0.77770
O796        O  0.13194109  0.65397162  0.85255824    -0.60680
O797        O  0.13280754  0.68198940  0.86525732    -0.51590
C798        C  0.13440596  0.63945243  0.90686986     0.70430
O799        O  0.15094766  0.63525601  0.90042004    -0.46450
C800        C  0.17848411  0.68231567  0.89306810     0.75140
O801        O  0.16277525  0.63025405  0.86558143    -0.58310
O802        O  0.16318439  0.68851510  0.88499210    -0.48400
O803        O  0.17286668  0.65644162  0.85281262    -0.54740
C804        C  0.12651458  0.67145495  0.85163579     0.85320
O805        O  0.12662126  0.65387569  0.89856158    -0.56630
O806        O  0.17944713  0.66414274  0.89418050    -0.59920
In807      In  0.91868514  0.70931565  0.74301851     1.36870
C808        C  0.89947256  0.68623992  0.71897948     0.77770
O809        O  0.91615231  0.68703142  0.76651721    -0.60680
O810        O  0.90249394  0.71422444  0.77104933    -0.51590
C811        C  0.95675447  0.71035188  0.74911390     0.70430
O812        O  0.94827751  0.69615035  0.74130300    -0.46450
C813        C  0.91281250  0.74196946  0.72315395     0.75140
O814        O  0.91783641  0.68685032  0.71964558    -0.58310
O815        O  0.90680561  0.73979430  0.74037502    -0.48400
O816        O  0.89103115  0.69725313  0.73090024    -0.54740
C817        C  0.90605148  0.69743179  0.77761897     0.85320
O818        O  0.94561206  0.72399838  0.75409525    -0.56630
O819        O  0.92194290  0.72759712  0.71653432    -0.59920
In820      In  0.84549884  0.65215383  0.87241509     1.36870
C821        C  0.82202519  0.63263255  0.84865960     0.77770
O822        O  0.81892260  0.65744170  0.89096851    -0.60680
O823        O  0.83250839  0.68148176  0.87760360    -0.51590
C824        C  0.86514497  0.63409624  0.90099434     0.70430
O825        O  0.85544053  0.62542160  0.88820131    -0.46450
C826        C  0.87119732  0.66618384  0.84709588     0.75140
O827        O  0.83012612  0.62501115  0.86325222    -0.58310
O828        O  0.86303112  0.67649996  0.85973060    -0.48400
O829        O  0.82596076  0.65031259  0.84625113    -0.54740
C830        C  0.81845615  0.67541602  0.88756772     0.85320
O831        O  0.86532528  0.65230881  0.89895704    -0.56630
O832        O  0.86764142  0.64829532  0.84861853    -0.59920
In833      In  0.08559438  0.27557565  0.74304556     1.36870
C834        C  0.10424706  0.29852937  0.71835609     0.77770
O835        O  0.09012720  0.29905425  0.76484086    -0.60680
O836        O  0.09930288  0.27066504  0.77256474    -0.51590
C837        C  0.04756606  0.27537090  0.74930331     0.70430
O838        O  0.05606241  0.28859005  0.73987249    -0.46450
C839        C  0.09230050  0.24220515  0.72484428     0.75140
O840        O  0.08595493  0.29676636  0.71816249    -0.58310
O841        O  0.10149092  0.24705383  0.74000073    -0.48400
O842        O  0.11283766  0.28846471  0.73110961    -0.54740
C843        C  0.09804838  0.28828860  0.77743254     0.85320
O844        O  0.05871707  0.26234307  0.75593933    -0.56630
O845        O  0.07955652  0.25425102  0.71944916    -0.59920
In846      In  0.15795567  0.33548634  0.87289647     1.36870
C847        C  0.18011551  0.35540701  0.84836693     0.77770
O848        O  0.18630357  0.33166682  0.88867115    -0.60680
O849        O  0.16936570  0.30657613  0.88361255    -0.51590
C850        C  0.13874249  0.35363732  0.90153369     0.70430
O851        O  0.15302192  0.36081054  0.89270050    -0.46450
C852        C  0.13405694  0.32050480  0.84614190     0.75140
O853        O  0.16672001  0.36319309  0.85813102    -0.58310
O854        O  0.14309700  0.31021885  0.85838341    -0.48400
O855        O  0.18175079  0.33735064  0.85085450    -0.54740
C856        C  0.18525093  0.31345816  0.88974285     0.85320
O857        O  0.13431178  0.33680190  0.89593417    -0.56630
O858        O  0.13624337  0.33849221  0.84849922    -0.59920
In859      In  0.92532041  0.27050360  0.74812711     1.36870
C860        C  0.90530972  0.29354904  0.72432041     0.77770
O861        O  0.92905473  0.25156536  0.72216526    -0.60680
O862        O  0.91433612  0.23955811  0.74632396    -0.51590
C863        C  0.96373530  0.27279628  0.75214980     0.70430
O864        O  0.95357659  0.28544405  0.74363450    -0.46450
C865        C  0.91231907  0.28173361  0.78289663     0.75140
O866        O  0.92363029  0.29364850  0.72542183    -0.58310
O867        O  0.91029688  0.26459714  0.77680300    -0.48400
O868        O  0.89714199  0.28150561  0.73548565    -0.54740
C869        C  0.92031450  0.23711917  0.72917245     0.85320
O870        O  0.95409298  0.25886551  0.75917572    -0.56630
O871        O  0.92127324  0.29273727  0.77136328    -0.59920
In872      In  0.85134237  0.32758032  0.87786821     1.36870
C873        C  0.83026135  0.34772723  0.85249085     0.77770
O874        O  0.87474334  0.33013788  0.85522769    -0.60680
O875        O  0.86491343  0.30202550  0.86268411    -0.51590
C876        C  0.86793427  0.34669529  0.90751130     0.70430
O877        O  0.85245872  0.35203015  0.89925472    -0.46450
C878        C  0.82406046  0.30507459  0.89350592     0.75140
O879        O  0.84358409  0.35543912  0.86252982    -0.58310
O880        O  0.84150716  0.29939900  0.89205556    -0.48400
O881        O  0.82845519  0.32969848  0.85496932    -0.54740
C882        C  0.87552653  0.31220850  0.85176990     0.85320
O883        O  0.87491488  0.33115792  0.90083806    -0.56630
O884        O  0.82135090  0.32245575  0.88857066    -0.59920
In885      In  0.08575026  0.71001430  0.24805292     1.36870
C886        C  0.10491206  0.68475905  0.26990259     0.77770
O887        O  0.08725196  0.68795366  0.22444075    -0.60680
O888        O  0.10307789  0.71417885  0.22073437    -0.51590
C889        C  0.04735138  0.71176694  0.24472794     0.70430
O890        O  0.05590846  0.70265479  0.25814819    -0.46450
C891        C  0.09241206  0.74301989  0.26707780     0.75140
O892        O  0.08658281  0.68461457  0.26830589    -0.58310
O893        O  0.09439958  0.74187163  0.24889048    -0.48400
O894        O  0.11341761  0.69755240  0.25987021    -0.54740
C895        C  0.09856671  0.69777882  0.21388248     0.85320
O896        O  0.05848828  0.71970235  0.23256049    -0.56630
O897        O  0.08723047  0.72745035  0.27504906    -0.59920
In898      In  0.15812820  0.65251911  0.11811474     1.36870
C899        C  0.17943646  0.63294987  0.14377473     0.77770
O900        O  0.18759882  0.65632305  0.10511516    -0.60680
O901        O  0.16868686  0.68057018  0.10454020    -0.51590
C902        C  0.13936744  0.63403896  0.08940346     0.70430
O903        O  0.15399853  0.62725940  0.09813176    -0.46450
C904        C  0.13430240  0.66789295  0.14434676     0.75140
O905        O  0.16770412  0.62472772  0.13229323    -0.58310
O906        O  0.14488974  0.67799858  0.13335096    -0.48400
O907        O  0.17978545  0.65117419  0.14237122    -0.54740
C908        C  0.18555103  0.67407280  0.10128515     0.85320
O909        O  0.13430906  0.65063484  0.09520680    -0.56630
O910        O  0.13479527  0.64994970  0.14084162    -0.59920
In911      In  0.92520027  0.71557315  0.24386448     1.36870
C912        C  0.90530943  0.69052534  0.26539009     0.77770
O913        O  0.92796614  0.73527390  0.26926949    -0.60680
O914        O  0.91377113  0.74643053  0.24421199    -0.51590
C915        C  0.96375468  0.71590966  0.24311987     0.70430
O916        O  0.95402073  0.70828627  0.25657188    -0.46450
C917        C  0.91269042  0.70469227  0.20890464     0.75140
O918        O  0.92202543  0.68685502  0.25887922    -0.58310
O919        O  0.90877032  0.72115332  0.21592693    -0.48400
O920        O  0.89861567  0.70687819  0.26050507    -0.54740
C921        C  0.91927087  0.74942138  0.26149302     0.85320
O922        O  0.95369751  0.72339328  0.22965071    -0.56630
O923        O  0.92332855  0.69424800  0.21962167    -0.59920
In924      In  0.85225609  0.65856861  0.11355391     1.36870
C925        C  0.83077487  0.63895918  0.13900965     0.77770
O926        O  0.87688328  0.65721665  0.13531502    -0.60680
O927        O  0.86403914  0.68448187  0.12944019    -0.51590
C928        C  0.86993489  0.63929591  0.08475916     0.70430
O929        O  0.85662343  0.63229766  0.09510475    -0.46450
C930        C  0.82519717  0.68013979  0.09598093     0.75140
O931        O  0.84509864  0.63147423  0.13040165    -0.58310
O932        O  0.84163881  0.68689742  0.10066988    -0.48400
O933        O  0.82789180  0.65655293  0.13492269    -0.54740
C934        C  0.87603843  0.67496916  0.13954535     0.85320
O935        O  0.87428149  0.65658071  0.08896424    -0.56630
O936        O  0.82347960  0.66213574  0.09876354    -0.59920
In937      In  0.07821841  0.27230904  0.24415410     1.36870
C938        C  0.09517118  0.29812507  0.26725793     0.77770
O939        O  0.07543030  0.25347758  0.27018422    -0.60680
O940        O  0.08671437  0.24052812  0.24469565    -0.51590
C941        C  0.03976872  0.27357386  0.24262580     0.70430
O942        O  0.04988343  0.28533036  0.25235231    -0.46450
C943        C  0.09394196  0.28021516  0.20958912     0.75140
O944        O  0.08166583  0.30270623  0.25565869    -0.58310
O945        O  0.10287919  0.27090473  0.22267990    -0.48400
O946        O  0.10046891  0.28067642  0.26630108    -0.54740
C947        C  0.08244003  0.23851162  0.26245080     0.85320
O948        O  0.04946465  0.26103380  0.23345427    -0.56630
O949        O  0.07677647  0.28477267  0.21399063    -0.59920
In950      In  0.15296021  0.32887961  0.11422683     1.36870
C951        C  0.17572871  0.35109114  0.13616829     0.77770
O952        O  0.12448002  0.32000490  0.12844988    -0.60680
O953        O  0.15089923  0.30905796  0.13984222    -0.51590
C954        C  0.13347624  0.34852354  0.08677739     0.70430
O955        O  0.14115092  0.35651165  0.10133177    -0.46450
C956        C  0.17772197  0.30599155  0.09571695     0.75140
O957        O  0.15749364  0.35346698  0.13547713    -0.58310
O958        O  0.16276321  0.29934700  0.10408261    -0.48400
O959        O  0.18200541  0.33800722  0.12520395    -0.54740
C960        C  0.13269903  0.30990934  0.14143648     0.85320
O961        O  0.13534925  0.33030292  0.08650221    -0.56630
O962        O  0.17867009  0.32426946  0.09527277    -0.59920
In963      In  0.91755367  0.27773953  0.24819328     1.36870
C964        C  0.89843600  0.30119485  0.27169324     0.77770
O965        O  0.91187706  0.30094510  0.22632677    -0.60680
O966        O  0.90292364  0.27251419  0.21903998    -0.51590
C967        C  0.95593111  0.27730273  0.24434562     0.70430
O968        O  0.94709430  0.28842497  0.25577464    -0.46450
C969        C  0.91283973  0.24484560  0.26783563     0.75140
O970        O  0.91538927  0.30476238  0.26567404    -0.58310
O971        O  0.90571033  0.24726222  0.25101068    -0.48400
O972        O  0.89105822  0.28565279  0.26539309    -0.54740
C973        C  0.90388010  0.29014070  0.21399480     0.85320
O974        O  0.94497655  0.26649596  0.23439547    -0.56630
O975        O  0.92241117  0.25908435  0.27413306    -0.59920
In976      In  0.84500049  0.33530621  0.11707249     1.36870
C977        C  0.82184403  0.35529035  0.14058298     0.77770
O978        O  0.81581861  0.33120012  0.10297978    -0.60680
O979        O  0.83334681  0.30630974  0.10710514    -0.51590
C980        C  0.86555074  0.35339392  0.08924273     0.70430
O981        O  0.85708713  0.36203730  0.10283864    -0.46450
C982        C  0.86944032  0.32067323  0.14353073     0.75140
O983        O  0.82702757  0.36155285  0.12416040    -0.58310
O984        O  0.86025196  0.31020454  0.13166346    -0.48400
O985        O  0.82857568  0.33879389  0.14490955    -0.54740
C986        C  0.81709375  0.31303652  0.10179107     0.85320
O987        O  0.86407739  0.33517704  0.09009659    -0.56630
O988        O  0.86735703  0.33865586  0.14070862    -0.59920
In989      In  0.08329801  0.57402130  0.99765859     1.36870
C990        C  0.09843277  0.59365694  0.96770373     0.77770
O991        O  0.05489412  0.57305294  0.98156140    -0.60680
O992        O  0.05439661  0.57851949  0.01193132    -0.51590
C993        C  0.08640019  0.53511310  0.99696055     0.70430
O994        O  0.09715077  0.54598282  0.98686164    -0.46450
C995        C  0.09971915  0.59232725  0.02790239     0.75140
O996        O  0.10788658  0.58113561  0.97728245    -0.58310
O997        O  0.08659063  0.59974494  0.01747163    -0.48400
O998        O  0.08102466  0.59561393  0.97306825    -0.54740
C999        C  0.04469928  0.57629175  0.99645881     0.85320
O1000       O  0.07475247  0.54413942  0.00772474    -0.56630
O1001       O  0.10416691  0.57525322  0.02315710    -0.59920
In1002     In  0.92159510  0.57500636  0.99371679     1.36870
C1003       C  0.90588142  0.59512812  0.02290063     0.77770
O1004       O  0.95003664  0.57486087  0.01012832    -0.60680
O1005       O  0.95083438  0.57727512  0.97948801    -0.51590
C1006       C  0.91832458  0.53611755  0.99337765     0.70430
O1007       O  0.91361545  0.54632767  0.00780479    -0.46450
C1008       C  0.90374908  0.59336367  0.96418913     0.75140
O1009       O  0.89928249  0.57895133  0.01739458    -0.58310
O1010       O  0.91879296  0.59969516  0.97247689    -0.48400
O1011       O  0.92064774  0.60076046  0.01365511    -0.54740
C1012       C  0.96040318  0.57642491  0.99512247     0.85320
O1013       O  0.92410921  0.54589960  0.97899691    -0.56630
O1014       O  0.89783329  0.57735249  0.97086070    -0.59920
In1015     In  0.08270691  0.41208175  0.99377296     1.36870
C1016       C  0.04409860  0.40832756  0.99473109     0.77770
O1017       O  0.09315751  0.38466567  0.00806547    -0.60680
O1018       O  0.09503138  0.41037626  0.02442968    -0.51590
C1019       C  0.09899063  0.39582604  0.96247322     0.70430
O1020       O  0.08376537  0.38948571  0.97039119    -0.46450
C1021       C  0.08615230  0.45097645  0.99366113     0.75140
O1022       O  0.05354641  0.41080464  0.97922070    -0.58310
O1023       O  0.10077367  0.43992248  0.99543751    -0.48400
O1024       O  0.05457947  0.40714775  0.00982414    -0.54740
C1025       C  0.09807439  0.39233482  0.02384583     0.85320
O1026       O  0.10546110  0.41120591  0.97000601    -0.56630
O1027       O  0.07030644  0.44208829  0.99152945    -0.59920
In1028     In  0.92100219  0.41278810  0.99684099     1.36870
C1029       C  0.95982940  0.41062998  0.99710474     0.77770
O1030       O  0.91979341  0.38798707  0.97585632    -0.60680
O1031       O  0.89637943  0.40788801  0.97536153    -0.51590
C1032       C  0.90447042  0.39431697  0.02675910     0.70430
O1033       O  0.91957394  0.38819857  0.01840379    -0.46450
C1034       C  0.91776827  0.45169991  0.99534582     0.75140
O1035       O  0.94993896  0.41089225  0.01251273    -0.58310
O1036       O  0.92111368  0.44140749  0.98062867    -0.48400
O1037       O  0.94979350  0.41167839  0.98178256    -0.54740
C1038       C  0.90367703  0.39261674  0.96840380     0.85320
O1039       O  0.89802385  0.41014364  0.02001659    -0.56630
O1040       O  0.91559103  0.44203163  0.01077610    -0.59920
In1041     In  0.72402439  0.74594463  0.07152394     1.36870
C1042       C  0.69830465  0.72383087  0.08979004     0.77770
O1043       O  0.74085123  0.71850682  0.07466999    -0.60680
O1044       O  0.75641733  0.74466631  0.07859125    -0.51590
C1045       C  0.72234115  0.74922535  0.03318551     0.70430
O1046       O  0.70845812  0.74303503  0.04334450    -0.46450
C1047       C  0.71435203  0.78109490  0.08436794     0.75140
O1048       O  0.70296628  0.72124733  0.07231150    -0.58310
O1049       O  0.72902513  0.77195750  0.09080903    -0.48400
O1050       O  0.70696642  0.73771154  0.09802268    -0.54740
C1051       C  0.75700197  0.72634077  0.07820574     0.85320
O1052       O  0.73722272  0.75416934  0.04277182    -0.56630
O1053       O  0.70528536  0.77245191  0.07103927    -0.59920
In1054     In  0.66747291  0.87484156  0.14543088     1.36870
C1055       C  0.64634174  0.84841089  0.16400882     0.77770
O1056       O  0.66651815  0.85378502  0.12061934    -0.60680
O1057       O  0.69392999  0.85999073  0.13345565    -0.51590
C1058       C  0.64855995  0.90471916  0.12891611     0.70430
O1059       O  0.64407140  0.89752832  0.14509246    -0.46450
C1060       C  0.68934582  0.88986035  0.17360850     0.75140
O1061       O  0.63865052  0.86104068  0.15305657    -0.58310
O1062       O  0.69471343  0.89047954  0.15609366    -0.48400
O1063       O  0.66466390  0.84906122  0.16473279    -0.54740
C1064       C  0.68449437  0.84990568  0.12143023     0.85320
O1065       O  0.66315689  0.89680300  0.12113606    -0.56630
O1066       O  0.67256902  0.88302838  0.17604544    -0.59920
In1067     In  0.71829629  0.74172254  0.91165011     1.36870
C1068       C  0.69426901  0.71868669  0.89216706     0.77770
O1069       O  0.69614111  0.76534158  0.90868351    -0.60680
O1070       O  0.72393478  0.77028144  0.89642375    -0.51590
C1071       C  0.71950821  0.74682045  0.94969248     0.70430
O1072       O  0.70592934  0.73786594  0.94122589    -0.46450
C1073       C  0.75119399  0.72209275  0.90616193     0.75140
O1074       O  0.69354190  0.72062833  0.91034434    -0.58310
O1075       O  0.74811667  0.73856248  0.89859293    -0.48400
O1076       O  0.70737031  0.72857721  0.88400325    -0.54740
C1077       C  0.70695246  0.77672089  0.89930791     0.85320
O1078       O  0.73244302  0.75349552  0.93855317    -0.56630
O1079       O  0.73748595  0.71592829  0.91662344    -0.59920
In1080     In  0.66000813  0.87214180  0.83982242     1.36870
C1081       C  0.63739945  0.84871910  0.81906309     0.77770
O1082       O  0.66540785  0.88046146  0.80901322    -0.60680
O1083       O  0.68848786  0.88491320  0.82890137    -0.51590
C1084       C  0.64158021  0.90056230  0.85899451     0.70430
O1085       O  0.63313044  0.88591648  0.85222219    -0.46450
C1086       C  0.67731154  0.84673966  0.86364126     0.75140
O1087       O  0.63588617  0.86695002  0.81833051    -0.58310
O1088       O  0.68604686  0.85487366  0.84975556    -0.48400
O1089       O  0.65019760  0.84258059  0.83073149    -0.54740
C1090       C  0.68281382  0.88559644  0.81145549     0.85320
O1091       O  0.65976959  0.90050858  0.85646784    -0.56630
O1092       O  0.66007905  0.85265672  0.86613537    -0.59920
In1093     In  0.28502107  0.74205916  0.07912834     1.36870
C1094       C  0.31036627  0.72017013  0.09828791     0.77770
O1095       O  0.30321011  0.76900948  0.07809823    -0.60680
O1096       O  0.28145235  0.76708358  0.09971733    -0.51590
C1097       C  0.28353790  0.74565322  0.04102714     0.70430
O1098       O  0.29702219  0.73665847  0.04974683    -0.46450
C1099       C  0.25264388  0.72157324  0.08425096     0.75140
O1100       O  0.31222782  0.72397203  0.08044874    -0.58310
O1101       O  0.25289956  0.73981972  0.08612487    -0.48400
O1102       O  0.29585920  0.72802057  0.10625748    -0.54740
C1103       C  0.29523312  0.77681768  0.09249887     0.85320
O1104       O  0.27070854  0.75285094  0.05193672    -0.56630
O1105       O  0.26873137  0.71421944  0.07947254    -0.59920
In1106     In  0.34323209  0.87165257  0.15149975     1.36870
C1107       C  0.36409935  0.84745348  0.17359221     0.77770
O1108       O  0.33929193  0.88686055  0.18007181    -0.60680
O1109       O  0.31453580  0.88307012  0.16203773    -0.51590
C1110       C  0.36093465  0.89927624  0.13057054     0.70430
O1111       O  0.36980052  0.88548752  0.13875428    -0.46450
C1112       C  0.32631222  0.84547994  0.12872527     0.75140
O1113       O  0.37061723  0.86354952  0.16783438    -0.58310
O1114       O  0.31787074  0.85375728  0.14257460    -0.48400
O1115       O  0.34705254  0.84384224  0.16794586    -0.54740
C1116       C  0.32108336  0.88846281  0.17823330     0.85320
O1117       O  0.34263629  0.89859261  0.13239602    -0.56630
O1118       O  0.34323973  0.85177898  0.12526389    -0.59920
In1119     In  0.27992085  0.74597185  0.91933150     1.36870
C1120       C  0.30380370  0.72242438  0.90047507     0.77770
O1121       O  0.26113384  0.71979770  0.92009625    -0.60680
O1122       O  0.24864621  0.74542349  0.90843523    -0.51590
C1123       C  0.28165648  0.74935996  0.95757585     0.70430
O1124       O  0.29552892  0.74309858  0.94748765    -0.46450
C1125       C  0.29052811  0.78104568  0.90692502     0.75140
O1126       O  0.29932649  0.71992504  0.91800409    -0.58310
O1127       O  0.27421121  0.77366866  0.90266526    -0.48400
O1128       O  0.29593761  0.73697253  0.89248577    -0.54740
C1129       C  0.24637373  0.72769939  0.91261152     0.85320
O1130       O  0.26690439  0.75466795  0.94792822    -0.56630
O1131       O  0.30098368  0.77062701  0.91787747    -0.59920
In1132     In  0.33740614  0.87498056  0.84536763     1.36870
C1133       C  0.35808379  0.85186988  0.82235081     0.77770
O1134       O  0.33873312  0.85434514  0.87056159    -0.60680
O1135       O  0.31131178  0.85897293  0.85696701    -0.51590
C1136       C  0.35612865  0.90253852  0.86550336     0.70430
O1137       O  0.36420470  0.88750231  0.85914722    -0.46450
C1138       C  0.31428538  0.88992356  0.81789502     0.75140
O1139       O  0.35819317  0.87004860  0.82073344    -0.58310
O1140       O  0.30764424  0.88381177  0.83387300    -0.48400
O1141       O  0.34774959  0.84546928  0.83597651    -0.54740
C1142       C  0.32096399  0.84969462  0.86962070     0.85320
O1143       O  0.33806861  0.90327728  0.86215064    -0.56630
O1144       O  0.33255994  0.88912495  0.81662160    -0.59920
In1145     In  0.71686033  0.24589187  0.07984986     1.36870
C1146       C  0.69245963  0.26862864  0.09882869     0.77770
O1147       O  0.69704352  0.22015618  0.07998033    -0.60680
O1148       O  0.72126300  0.21961360  0.09906346    -0.51590
C1149       C  0.71857979  0.24197347  0.04177284     0.70430
O1150       O  0.70433673  0.24982074  0.05018825    -0.46450
C1151       C  0.74934512  0.26614890  0.08517450     0.75140
O1152       O  0.69065236  0.26526041  0.08092117    -0.58310
O1153       O  0.74860441  0.24807142  0.08836811    -0.48400
O1154       O  0.70645359  0.25993325  0.10702263    -0.54740
C1155       C  0.70617569  0.21105247  0.09300061     0.85320
O1156       O  0.73191163  0.23595944  0.05293597    -0.56630
O1157       O  0.73362543  0.27347416  0.07905924    -0.59920
In1158     In  0.66003056  0.11552624  0.15256868     1.36870
C1159       C  0.63956382  0.14051481  0.17370728     0.77770
O1160       O  0.66547055  0.09841359  0.17985071    -0.60680
O1161       O  0.68978412  0.10623874  0.16264786    -0.51590
C1162       C  0.64258161  0.08621017  0.13388913     0.70430
O1163       O  0.63684835  0.09286776  0.14984440    -0.46450
C1164       C  0.67583368  0.14189464  0.12927608     0.75140
O1165       O  0.63185651  0.13019432  0.16072096    -0.58310
O1166       O  0.68570041  0.13102257  0.14029027    -0.48400
O1167       O  0.65762674  0.13808019  0.17568153    -0.54740
C1168       C  0.68374929  0.09867421  0.17817413     0.85320
O1169       O  0.65764494  0.09444337  0.12739206    -0.56630
O1170       O  0.65779702  0.13822000  0.12896184    -0.59920
In1171     In  0.72441861  0.23963265  0.92005650     1.36870
C1172       C  0.70100444  0.26496592  0.90297147     0.77770
O1173       O  0.74331168  0.26566802  0.92010348    -0.60680
O1174       O  0.75534536  0.23978437  0.90842815    -0.51590
C1175       C  0.72191128  0.23759021  0.95847945     0.70430
O1176       O  0.70740083  0.24077684  0.94770497    -0.46450
C1177       C  0.71327146  0.20550558  0.90519935     0.75140
O1178       O  0.69837475  0.25924575  0.92024314    -0.58310
O1179       O  0.72840387  0.20695296  0.91552611    -0.48400
O1180       O  0.71574289  0.25780648  0.89465300    -0.54740
C1181       C  0.75762749  0.25760107  0.91210309     0.85320
O1182       O  0.73760290  0.23486858  0.94949857    -0.56630
O1183       O  0.70478570  0.22133917  0.90218567    -0.59920
In1184     In  0.66794854  0.11042811  0.84529872     1.36870
C1185       C  0.64781722  0.13298438  0.82114069     0.77770
O1186       O  0.66401101  0.13608574  0.86415623    -0.60680
O1187       O  0.69136277  0.12184901  0.86565551    -0.51590
C1188       C  0.64932539  0.08313019  0.86576129     0.70430
O1189       O  0.64156616  0.09884628  0.86051862    -0.46450
C1190       C  0.69183389  0.09605556  0.81851411     0.75140
O1191       O  0.64151671  0.11673730  0.82680752    -0.58310
O1192       O  0.69766317  0.10685048  0.83206757    -0.48400
O1193       O  0.66456711  0.13716766  0.82734369    -0.54740
C1194       C  0.68123123  0.13635069  0.87048379     0.85320
O1195       O  0.66707096  0.08165741  0.86125193    -0.56630
O1196       O  0.67397970  0.09182515  0.81932728    -0.59920
In1197     In  0.27915886  0.24157385  0.07169280     1.36870
C1198       C  0.30194815  0.26554743  0.09122802     0.77770
O1199       O  0.26033420  0.26772063  0.06923474    -0.60680
O1200       O  0.24818261  0.24302978  0.08301469    -0.51590
C1201       C  0.28140793  0.23760280  0.03350811     0.70430
O1202       O  0.29485823  0.24466071  0.04370017    -0.46450
C1203       C  0.29135901  0.20726223  0.08502194     0.75140
O1204       O  0.30026233  0.26612253  0.07299646    -0.58310
O1205       O  0.27349111  0.21174120  0.08459569    -0.48400
O1206       O  0.29161652  0.25283804  0.09952865    -0.54740
C1207       C  0.24581496  0.26043465  0.07762074     0.85320
O1208       O  0.26684769  0.23183284  0.04301575    -0.56630
O1209       O  0.30249587  0.22006542  0.07822205    -0.59920
In1210     In  0.33729183  0.11148800  0.14594649     1.36870
C1211       C  0.35751470  0.13577235  0.16802764     0.77770
O1212       O  0.34068702  0.13722143  0.12651876    -0.60680
O1213       O  0.31240779  0.12518478  0.12908411    -0.51590
C1214       C  0.35590334  0.08227329  0.12823971     0.70430
O1215       O  0.36084067  0.08910534  0.14438177    -0.46450
C1216       C  0.31435739  0.09518148  0.17258350     0.75140
O1217       O  0.36493057  0.12741293  0.15354031    -0.58310
O1218       O  0.30752151  0.10243858  0.15711834    -0.48400
O1219       O  0.33977935  0.13196244  0.17075492    -0.54740
C1220       C  0.32285259  0.13868034  0.12232401     0.85320
O1221       O  0.34109803  0.09035582  0.12087731    -0.56630
O1222       O  0.33267226  0.09515470  0.17344891    -0.59920
In1223     In  0.28535899  0.24604083  0.91210413     1.36870
C1224       C  0.30987614  0.26973291  0.89432713     0.77770
O1225       O  0.30601456  0.22106878  0.91103525    -0.60680
O1226       O  0.28127946  0.21976936  0.89271372    -0.51590
C1227       C  0.28368281  0.24151357  0.95017825     0.70430
O1228       O  0.29644759  0.25168269  0.94189144    -0.46450
C1229       C  0.25241686  0.26581835  0.90737171     0.75140
O1230       O  0.31325138  0.26279150  0.91095294    -0.58310
O1231       O  0.25381328  0.24809520  0.90281460    -0.48400
O1232       O  0.29426005  0.26404399  0.88649747    -0.54740
C1233       C  0.29680633  0.21164511  0.89841685     0.85320
O1234       O  0.27160314  0.23358742  0.93888385    -0.56630
O1235       O  0.26773131  0.27302403  0.91448860    -0.59920
In1236     In  0.34393752  0.11660299  0.83951012     1.36870
C1237       C  0.36458717  0.13833580  0.81506615     0.77770
O1238       O  0.33889663  0.09934985  0.81243654    -0.60680
O1239       O  0.31430599  0.11068744  0.82738407    -0.51590
C1240       C  0.36104862  0.08789526  0.85996803     0.70430
O1241       O  0.36730033  0.10502780  0.85963273    -0.46450
C1242       C  0.32789441  0.14235671  0.86348452     0.75140
O1243       O  0.37239065  0.12568635  0.82584738    -0.58310
O1244       O  0.31830990  0.12867652  0.85606427    -0.48400
O1245       O  0.34641628  0.13967405  0.81677960    -0.54740
C1246       C  0.32061898  0.10179868  0.81268396     0.85320
O1247       O  0.34550105  0.08556607  0.85048179    -0.56630
O1248       O  0.34586121  0.14181534  0.85995957    -0.59920
In1249     In  0.58283898  0.99518971  0.07666483     1.36870
C1250       C  0.58442206  0.99478825  0.03804352     0.77770
O1251       O  0.60750575  0.97367795  0.07651337    -0.60680
O1252       O  0.58870560  0.97372535  0.10078188    -0.51590
C1253       C  0.60146983  0.02450082  0.09401341     0.70430
O1254       O  0.60614864  0.01816648  0.07753845    -0.46450
C1255       C  0.54382019  0.99455785  0.08010211     0.75140
O1256       O  0.58437095  0.01030106  0.04771173    -0.58310
O1257       O  0.55418747  0.97944116  0.08034671    -0.48400
O1258       O  0.58362909  0.97957028  0.04822836    -0.54740
C1259       C  0.60350101  0.96638445  0.09281277     0.85320
O1260       O  0.58699210  0.01602479  0.10143177    -0.56630
O1261       O  0.55350149  0.01001724  0.07857444    -0.59920
In1262     In  0.58282401  0.99228389  0.91526134     1.36870
C1263       C  0.58488107  0.99373696  0.95406542     0.77770
O1264       O  0.61084530  0.00558976  0.90507061    -0.60680
O1265       O  0.58540262  0.02285259  0.90345569    -0.51590
C1266       C  0.60045987  0.96300016  0.89713817     0.70430
O1267       O  0.60699214  0.97072788  0.91235974    -0.46450
C1268       C  0.54425213  0.99096844  0.90880041     0.75140
O1269       O  0.58435002  0.97813462  0.94468988    -0.58310
O1270       O  0.55500592  0.00415328  0.90195672    -0.48400
O1271       O  0.58453734  0.00869911  0.94354376    -0.54740
C1272       C  0.60351150  0.02171863  0.90050377     0.85320
O1273       O  0.58447542  0.97002167  0.89118664    -0.56630
O1274       O  0.55342107  0.97805193  0.91812143    -0.59920
In1275     In  0.42024295  0.99201794  0.07535173     1.36870
C1276       C  0.41882800  0.99296327  0.03665189     0.77770
O1277       O  0.39814263  0.01608653  0.07424443    -0.60680
O1278       O  0.41313540  0.01133171  0.10073103    -0.51590
C1279       C  0.40148019  0.96223299  0.09190240     0.70430
O1280       O  0.39414289  0.97246260  0.07853684    -0.46450
C1281       C  0.45914821  0.99226184  0.07972635     0.75140
O1282       O  0.41480057  0.97793712  0.04635022    -0.58310
O1283       O  0.44866625  0.00709377  0.08221043    -0.48400
O1284       O  0.42359903  0.00734688  0.04682452    -0.54740
C1285       C  0.40038731  0.02105639  0.09167695     0.85320
O1286       O  0.41857007  0.96711475  0.09662576    -0.56630
O1287       O  0.44962295  0.97718843  0.07557350    -0.59920
In1288     In  0.42097373  0.99465514  0.91395370     1.36870
C1289       C  0.40014554  0.96537996  0.89971532     0.77770
O1290       O  0.41210806  0.98089138  0.94231037    -0.60680
O1291       O  0.42466391  0.00881821  0.94312883    -0.51590
C1292       C  0.45967627  0.99206085  0.90804370     0.70430
O1293       O  0.44987190  0.97926191  0.91664709    -0.46450
C1294       C  0.40328165  0.02472385  0.89660248     0.75140
O1295       O  0.41826470  0.96706908  0.89690448    -0.58310
O1296       O  0.40935894  0.02532609  0.91388982    -0.48400
O1297       O  0.39275686  0.97868577  0.90986830    -0.54740
C1298       C  0.41782977  0.99477810  0.95266302     0.85320
O1299       O  0.44952886  0.00596402  0.90164064    -0.56630
O1300       O  0.40696800  0.00906533  0.88796473    -0.59920
In1301     In  0.75464854  0.06946393  0.71716745     1.36870
C1302       C  0.73157580  0.08841606  0.69231444     0.77770
O1303       O  0.72861475  0.06834957  0.73656079    -0.60680
O1304       O  0.75473725  0.07942885  0.74851041    -0.51590
C1305       C  0.75783083  0.03127299  0.71503452     0.70430
O1306       O  0.75117712  0.04163825  0.70141912    -0.46450
C1307       C  0.78993274  0.08277310  0.70787190     0.75140
O1308       O  0.72893943  0.07092710  0.69686751    -0.58310
O1309       O  0.77952291  0.09021676  0.72096344    -0.48400
O1310       O  0.74609827  0.09611981  0.70037822    -0.54740
C1311       C  0.73698386  0.07549089  0.75113688     0.85320
O1312       O  0.76375565  0.04064371  0.72964603    -0.56630
O1313       O  0.78260284  0.06792348  0.70009972    -0.59920
In1314     In  0.88438432  0.14374945  0.65976321     1.36870
C1315       C  0.86079783  0.16570763  0.63797852     0.77770
O1316       O  0.86697198  0.11582197  0.66243767    -0.60680
O1317       O  0.86418484  0.13727151  0.68420799    -0.51590
C1318       C  0.91160421  0.12356092  0.64070175     0.70430
O1319       O  0.89664175  0.13058370  0.63269982    -0.46450
C1320       C  0.90090135  0.17025303  0.68273530     0.75140
O1321       O  0.87894949  0.16511855  0.63541525    -0.58310
O1322       O  0.89611059  0.15367800  0.68885942    -0.48400
O1323       O  0.85478873  0.15454257  0.65111204    -0.54740
C1324       C  0.85841050  0.12119476  0.67774775     0.85320
O1325       O  0.91219835  0.12590521  0.65887509    -0.56630
O1326       O  0.89844370  0.17263455  0.66477235    -0.59920
In1327     In  0.75067961  0.90942662  0.71227802     1.36870
C1328       C  0.72797669  0.89009787  0.68788783     0.77770
O1329       O  0.77535664  0.90841819  0.69119479    -0.60680
O1330       O  0.77792206  0.89157626  0.71686581    -0.51590
C1331       C  0.75461404  0.94769341  0.71319900     0.70430
O1332       O  0.74520827  0.93896703  0.70014483    -0.46450
C1333       C  0.73062834  0.90293855  0.74468366     0.75140
O1334       O  0.72947908  0.90834674  0.68755815    -0.58310
O1335       O  0.74894428  0.90105636  0.74413213    -0.48400
O1336       O  0.73853185  0.88175835  0.70046761    -0.54740
C1337       C  0.78550352  0.89664741  0.70095337     0.85320
O1338       O  0.76215181  0.93672117  0.72586135    -0.56630
O1339       O  0.72302279  0.90844698  0.72894500    -0.59920
In1340     In  0.87998739  0.83697097  0.65334600     1.36870
C1341       C  0.85632302  0.81433901  0.63277072     0.77770
O1342       O  0.89432768  0.80802642  0.65780282    -0.60680
O1343       O  0.88884531  0.82524908  0.68259556    -0.51590
C1344       C  0.90815383  0.85767085  0.63607135     0.70430
O1345       O  0.89245989  0.85307480  0.62780592    -0.46450
C1346       C  0.85480575  0.86140702  0.66957888     0.75140
O1347       O  0.87351607  0.81803993  0.62753172    -0.58310
O1348       O  0.86529488  0.84987958  0.67929740    -0.48400
O1349       O  0.85135693  0.82238452  0.64834994    -0.54740
C1350       C  0.89478911  0.80925234  0.67606178     0.85320
O1351       O  0.90923860  0.85217894  0.65352750    -0.56630
O1352       O  0.85835773  0.86151254  0.65161282    -0.59920
In1353     In  0.74930944  0.07785081  0.27917212     1.36870
C1354       C  0.72687292  0.09705790  0.30385534     0.77770
O1355       O  0.77611516  0.07702580  0.29793484    -0.60680
O1356       O  0.77459951  0.09817465  0.27558612    -0.51590
C1357       C  0.75248808  0.03977729  0.27789639     0.70430
O1358       O  0.74094644  0.04841671  0.28917410    -0.46450
C1359       C  0.73096083  0.08210017  0.24537867     0.75140
O1360       O  0.73288629  0.08009469  0.30723048    -0.58310
O1361       O  0.74818560  0.08802495  0.24805843    -0.48400
O1362       O  0.73257282  0.10414545  0.28798553    -0.54740
C1363       C  0.78417953  0.09118854  0.28965055     0.85320
O1364       O  0.76273037  0.05079207  0.26738446    -0.56630
O1365       O  0.72344081  0.07389952  0.25991407    -0.59920
In1366     In  0.87958389  0.15058927  0.33698140     1.36870
C1367       C  0.85544624  0.17257146  0.35760820     0.77770
O1368       O  0.89348832  0.17973223  0.33299586    -0.60680
O1369       O  0.89241118  0.16096696  0.30877077    -0.51590
C1370       C  0.90761856  0.13029860  0.35504228     0.70430
O1371       O  0.89341378  0.13786829  0.36369436    -0.46450
C1372       C  0.85335884  0.12771397  0.32005964     0.75140
O1373       O  0.87145188  0.16646872  0.36429805    -0.58310
O1374       O  0.86133900  0.14187266  0.31175447    -0.48400
O1375       O  0.85180455  0.16716417  0.34055987    -0.54740
C1376       C  0.89645772  0.17760977  0.31509082     0.85320
O1377       O  0.90710899  0.13238177  0.33681595    -0.56630
O1378       O  0.85999113  0.12404542  0.33681565    -0.59920
In1379     In  0.75490173  0.91791927  0.27347110     1.36870
C1380       C  0.73318988  0.89835770  0.29834433     0.77770
O1381       O  0.72862160  0.90949149  0.25668078    -0.60680
O1382       O  0.75417272  0.91469154  0.24046953    -0.51590
C1383       C  0.75470134  0.95634441  0.27456238     0.70430
O1384       O  0.74423466  0.94591202  0.28529273    -0.46450
C1385       C  0.78989209  0.90589618  0.28545311     0.75140
O1386       O  0.73297864  0.91665126  0.29720180    -0.58310
O1387       O  0.78291622  0.90124052  0.26912941    -0.48400
O1388       O  0.74494058  0.89009572  0.28691926    -0.54740
C1389       C  0.73640827  0.90998058  0.24023642     0.85320
O1390       O  0.76547325  0.94702949  0.26309908    -0.56630
O1391       O  0.77921368  0.91708251  0.29513667    -0.59920
In1392     In  0.88383588  0.84338211  0.33083115     1.36870
C1393       C  0.85961643  0.82040343  0.35045189     0.77770
O1394       O  0.86079919  0.86620381  0.33415410    -0.60680
O1395       O  0.87131202  0.86034976  0.30583944    -0.51590
C1396       C  0.91099934  0.86346842  0.35023747     0.70430
O1397       O  0.89742600  0.85426854  0.35825859    -0.46450
C1398       C  0.89928956  0.81645148  0.30749931     0.75140
O1399       O  0.87710006  0.82296995  0.35541035    -0.58310
O1400       O  0.88906719  0.83031156  0.30124751    -0.48400
O1401       O  0.85465075  0.82937971  0.33527618    -0.54740
C1402       C  0.85909898  0.86930116  0.31613645     0.85320
O1403       O  0.91042431  0.86308180  0.33191987    -0.56630
O1404       O  0.90242051  0.81701322  0.32550038    -0.59920
In1405     In  0.25484097  0.07675445  0.71228185     1.36870
C1406       C  0.27933056  0.09541706  0.68923667     0.77770
O1407       O  0.23424257  0.08350206  0.68813959    -0.60680
O1408       O  0.22430348  0.08863255  0.71675197    -0.51590
C1409       C  0.24910859  0.03881085  0.71280887     0.70430
O1410       O  0.25865481  0.04731731  0.69970358    -0.46450
C1411       C  0.27390740  0.08301795  0.74539566     0.75140
O1412       O  0.27746611  0.07720115  0.68903280    -0.58310
O1413       O  0.25804577  0.09152324  0.74132885    -0.48400
O1414       O  0.26875132  0.10400522  0.70148641    -0.54740
C1415       C  0.22059954  0.08935259  0.69876858     0.85320
O1416       O  0.24211350  0.04987367  0.72555034    -0.56630
O1417       O  0.27959724  0.07129096  0.73263766    -0.59920
In1418     In  0.12448631  0.14929130  0.65319936     1.36870
C1419       C  0.14573171  0.17472471  0.63329722     0.77770
O1420       O  0.10413647  0.17387859  0.66058473    -0.60680
O1421       O  0.12260004  0.16277208  0.68268778    -0.51590
C1422       C  0.09623422  0.12904369  0.63542973     0.70430
O1423       O  0.11044411  0.13650211  0.62664167    -0.46450
C1424       C  0.15127595  0.12405959  0.66572154     0.75140
O1425       O  0.13130216  0.16612135  0.62589665    -0.58310
O1426       O  0.13644606  0.12827767  0.67561518    -0.48400
O1427       O  0.14892282  0.17045059  0.65080993    -0.54740
C1428       C  0.11023569  0.17540672  0.67781621     0.85320
O1429       O  0.09674375  0.13141675  0.65359524    -0.56630
O1430       O  0.15116173  0.13117201  0.64886010    -0.59920
In1431     In  0.24947067  0.91710853  0.71703864     1.36870
C1432       C  0.27271386  0.89693797  0.69399379     0.77770
O1433       O  0.27608875  0.91861570  0.73557384    -0.60680
O1434       O  0.25076755  0.90640679  0.74815996    -0.51590
C1435       C  0.24632247  0.95542437  0.71531027     0.70430
O1436       O  0.25415649  0.94540093  0.70227207    -0.46450
C1437       C  0.21426675  0.90541113  0.70538026     0.75140
O1438       O  0.27234845  0.91520962  0.69426818    -0.58310
O1439       O  0.22031468  0.90279237  0.72254015    -0.48400
O1440       O  0.26101571  0.88888664  0.70561485    -0.54740
C1441       C  0.26854426  0.91073912  0.75024837     0.85320
O1442       O  0.23973129  0.94573062  0.72940509    -0.56630
O1443       O  0.22612283  0.91418435  0.69459031    -0.59920
In1444     In  0.12165686  0.84257869  0.66018468     1.36870
C1445       C  0.14484272  0.82052024  0.63848441     0.77770
O1446       O  0.14290696  0.86690700  0.65745161    -0.60680
O1447       O  0.13313063  0.85939208  0.68572384    -0.51590
C1448       C  0.09410604  0.86124502  0.63984715     0.70430
O1449       O  0.10478267  0.84818255  0.63284065    -0.46450
C1450       C  0.10866387  0.81635223  0.68580157     0.75140
O1451       O  0.12662206  0.81830579  0.63886633    -0.58310
O1452       O  0.12604260  0.82205639  0.68526353    -0.48400
O1453       O  0.15096396  0.83418676  0.64885053    -0.54740
C1454       C  0.14471808  0.86934846  0.67553150     0.85320
O1455       O  0.09769273  0.86510047  0.65741792    -0.56630
O1456       O  0.09760909  0.82475838  0.67376853    -0.59920
In1457     In  0.24923537  0.07024426  0.27335105     1.36870
C1458       C  0.27185069  0.08964940  0.29780212     0.77770
O1459       O  0.27632253  0.07172421  0.25570174    -0.60680
O1460       O  0.24972962  0.07732034  0.24108818    -0.51590
C1461       C  0.24699572  0.03190996  0.27535111     0.70430
O1462       O  0.25541978  0.04213989  0.28789693    -0.46450
C1463       C  0.21409046  0.08282223  0.28402271     0.75140
O1464       O  0.27179512  0.07142300  0.29667016    -0.58310
O1465       O  0.22205358  0.08811125  0.26838176    -0.48400
O1466       O  0.26012175  0.09806896  0.28634814    -0.54740
C1467       C  0.26804850  0.07604905  0.23993592     0.85320
O1468       O  0.23926350  0.04141452  0.26163221    -0.56630
O1469       O  0.22395100  0.07082252  0.29378411    -0.59920
In1470     In  0.11974020  0.14400490  0.33038155     1.36870
C1471       C  0.14324369  0.16734981  0.35039689     0.77770
O1472       O  0.14117126  0.11930160  0.33243740    -0.60680
O1473       O  0.13498144  0.13109591  0.30467560    -0.51590
C1474       C  0.09193865  0.12386318  0.34878489     0.70430
O1475       O  0.10763191  0.12905429  0.35668399    -0.46450
C1476       C  0.10320678  0.17114573  0.30812026     0.75140
O1477       O  0.12660277  0.16247259  0.35633850    -0.58310
O1478       O  0.10879421  0.15507826  0.30142362    -0.48400
O1479       O  0.14784664  0.16012283  0.33428208    -0.54740
C1480       C  0.14509391  0.11937681  0.31455800     0.85320
O1481       O  0.09076552  0.12820230  0.33100730    -0.56630
O1482       O  0.10510651  0.17270457  0.32624943    -0.59920
In1483     In  0.25470258  0.91042946  0.27822675     1.36870
C1484       C  0.27886229  0.89126759  0.30133813     0.77770
O1485       O  0.23456737  0.90199710  0.30200596    -0.60680
O1486       O  0.22414253  0.89886276  0.27318786    -0.51590
C1487       C  0.24946405  0.94846009  0.27828022     0.70430
O1488       O  0.26067938  0.93983048  0.29000222    -0.46450
C1489       C  0.27371265  0.90498475  0.24511017     0.75140
O1490       O  0.27493175  0.90900974  0.30365588    -0.58310
O1491       O  0.25780437  0.89650785  0.24879692    -0.48400
O1492       O  0.27046248  0.88342928  0.28702309    -0.54740
C1493       C  0.22079246  0.89684883  0.29110826     0.85320
O1494       O  0.24049149  0.93746362  0.26672555    -0.56630
O1495       O  0.27950294  0.91627012  0.25825559    -0.59920
In1496     In  0.12491940  0.83731741  0.33693561     1.36870
C1497       C  0.14984604  0.81576286  0.35713767     0.77770
O1498       O  0.10883792  0.80951801  0.33241950    -0.60680
O1499       O  0.11663168  0.82555119  0.30742156    -0.51590
C1500       C  0.09602480  0.85599530  0.35516358     0.70430
O1501       O  0.10445518  0.84123180  0.36186464    -0.46450
C1502       C  0.15192390  0.86130304  0.32321456     0.75140
O1503       O  0.13889735  0.82817177  0.36497805    -0.58310
O1504       O  0.13799226  0.85536959  0.31281844    -0.48400
O1505       O  0.14800344  0.81451702  0.33895173    -0.54740
C1506       C  0.10943374  0.81013522  0.31416690     0.85320
O1507       O  0.10218472  0.86124004  0.33872474    -0.56630
O1508       O  0.15080942  0.85647440  0.34082392    -0.59920
In1509     In  0.00035740  0.07358836  0.41374836     1.36870
C1510       C  0.00080229  0.03482632  0.41250720     0.77770
O1511       O  0.01792493  0.07697221  0.38643152    -0.60680
O1512       O  0.02626687  0.09358801  0.41086158    -0.51590
C1513       C  0.97105135  0.09192191  0.39565178     0.70430
O1514       O  0.97891826  0.07673640  0.38929911    -0.46450
C1515       C  0.00075040  0.07788421  0.45251832     0.75140
O1516       O  0.98529998  0.04460214  0.41253570    -0.58310
O1517       O  0.01586602  0.07892805  0.44218793    -0.48400
O1518       O  0.01606476  0.04492575  0.41314578    -0.54740
C1519       C  0.02957538  0.08921276  0.39340700     0.85320
O1520       O  0.97804012  0.09778512  0.41157546    -0.56630
O1521       O  0.98528125  0.07523638  0.44288328    -0.59920
In1522     In  0.00405954  0.91243968  0.41446905     1.36870
C1523       C  0.00278048  0.95093594  0.41273318     0.77770
O1524       O  0.98384128  0.91163763  0.38864143    -0.60680
O1525       O  0.97788705  0.89272719  0.41206187    -0.51590
C1526       C  0.03414450  0.89527357  0.39647898     0.70430
O1527       O  0.02484591  0.90936771  0.38951183    -0.46450
C1528       C  0.00479429  0.90909368  0.45339412     0.75140
O1529       O  0.01846633  0.94136748  0.41215960    -0.58310
O1530       O  0.99649840  0.89676813  0.44266937    -0.48400
O1531       O  0.98756912  0.94068110  0.41413384    -0.54740
C1532       C  0.97312001  0.89839780  0.39526685     0.85320
O1533       O  0.02831633  0.89005922  0.41301313    -0.56630
O1534       O  0.01300333  0.92258223  0.44416597    -0.59920
In1535     In  0.00342075  0.07353293  0.57582572     1.36870
C1536       C  0.97415627  0.08949412  0.59585213     0.77770
O1537       O  0.98813224  0.04481158  0.57404642    -0.60680
O1538       O  0.01848897  0.04453323  0.57918508    -0.51590
C1539       C  0.00239816  0.07787183  0.53703339     0.70430
O1540       O  0.98737320  0.07857628  0.54752821    -0.46450
C1541       C  0.03318423  0.09100516  0.59407273     0.75140
O1542       O  0.98027220  0.09656185  0.58006324    -0.58310
O1543       O  0.02310650  0.07777796  0.60167921    -0.48400
O1544       O  0.98300600  0.07439030  0.60125382    -0.54740
C1545       C  0.00316984  0.03472488  0.57692219     0.85320
O1546       O  0.01804351  0.07560541  0.54650565    -0.56630
O1547       O  0.02809652  0.09535579  0.57696361    -0.59920
In1548     In  0.00122445  0.91242993  0.57659532     1.36870
C1549       C  0.00192992  0.95086133  0.57947170     0.77770
O1550       O  0.02484393  0.91309921  0.59925668    -0.60680
O1551       O  0.02418365  0.88912958  0.58021220    -0.51590
C1552       C  0.97056199  0.89650993  0.59491062     0.70430
O1553       O  0.98457343  0.90440273  0.60357264    -0.46450
C1554       C  0.00278509  0.90936483  0.53764842     0.75140
O1555       O  0.98627387  0.94119580  0.57983639    -0.58310
O1556       O  0.00633748  0.89513992  0.54873471    -0.48400
O1557       O  0.01722767  0.94073541  0.57815048    -0.54740
C1558       C  0.03220628  0.89702356  0.59469229     0.85320
O1559       O  0.97191305  0.89711285  0.57668752    -0.56630
O1560       O  0.99828297  0.92461598  0.54648385    -0.59920
C1561       C  0.01940005  0.00289175  0.58380207    -0.21120
C1562       C  0.00279941  0.01325924  0.57771107    -0.09160
C1563       C  0.98588023  0.00290625  0.57256122     0.29700
C1564       C  0.98562000  0.98265368  0.57364055    -0.21120
C1565       C  0.00223577  0.97229653  0.57960283    -0.09170
C1566       C  0.01918052  0.98259567  0.58471016     0.29700
F1567       F  0.03544703  0.97309687  0.59081825    -0.19700
H1568       H  0.03256745  0.01050477  0.58792847     0.18070
H1569       H  0.97250435  0.97503144  0.56937559     0.18080
F1570       F  0.96966331  0.01227391  0.56612661    -0.19680
C1571       C  0.00810198  0.92562375  0.48530078    -0.21120
C1572       C  0.00462807  0.90844566  0.47496279    -0.09160
C1573       C  0.00088880  0.89125249  0.48545014     0.29700
C1574       C  0.00078708  0.89137764  0.50588885    -0.21120
C1575       C  0.00387210  0.90872217  0.51613329    -0.09170
C1576       C  0.00752652  0.92585995  0.50557475     0.29700
F1577       F  0.01079428  0.94290514  0.51485246    -0.19700
H1578       H  0.01096099  0.93906984  0.47764061     0.18070
H1579       H  0.99787729  0.87803111  0.51368972     0.18080
F1580       F  0.99752002  0.87433669  0.47600433    -0.19680
C1581       C  0.98376070  0.07782612  0.48476716    -0.21120
C1582       C  0.00117046  0.07912513  0.47412603    -0.09160
C1583       C  0.01889679  0.08079152  0.48441316     0.29700
C1584       C  0.01912730  0.08069321  0.50478881    -0.21120
C1585       C  0.00174769  0.07908515  0.51542622    -0.09170
C1586       C  0.98398417  0.07784510  0.50514788     0.29700
F1587       F  0.96682215  0.07608104  0.51473164    -0.19700
H1588       H  0.96991530  0.07649451  0.47730177     0.18070
H1589       H  0.03299626  0.08169414  0.51226142     0.18080
F1590       F  0.03610524  0.08215980  0.47484774    -0.19680
C1591       C  0.01894098  0.00349993  0.41422454    -0.21120
C1592       C  0.00115700  0.01337322  0.41197093    -0.09160
C1593       C  0.98394181  0.00253813  0.40949802     0.29700
C1594       C  0.98458039  0.98224250  0.40966566    -0.21120
C1595       C  0.00235217  0.97238680  0.41214385    -0.09170
C1596       C  0.01959433  0.98323909  0.41431473     0.29700
F1597       F  0.03707832  0.97433994  0.41694058    -0.19700
H1598       H  0.03239330  0.01147537  0.41615468     0.18070
H1599       H  0.97114080  0.97422910  0.40783571     0.18080
F1600       F  0.96648855  0.01148889  0.40686809    -0.19680
C1601       C  0.06020124  0.86999240  0.39466249    -0.21120
C1602       C  0.05025083  0.88559429  0.38598967    -0.09160
C1603       C  0.05560268  0.89151606  0.36712289     0.29700
C1604       C  0.07051428  0.88189264  0.35721220    -0.21120
C1605       C  0.08035626  0.86618689  0.36583509    -0.09170
C1606       C  0.07509081  0.86036769  0.38475926     0.29700
F1607       F  0.08431327  0.84538861  0.39379337    -0.19700
H1608       H  0.05640498  0.86515310  0.40914217     0.18070
H1609       H  0.07428337  0.88668236  0.34271240     0.18080
F1610       F  0.04635813  0.90649787  0.35811816    -0.19680
C1611       C  0.16819389  0.88055903  0.29686753    -0.21120
C1612       C  0.16893468  0.87178137  0.31533090    -0.09160
C1613       C  0.18668967  0.87161930  0.32563015     0.29700
C1614       C  0.20326403  0.88006624  0.31762503    -0.21120
C1615       C  0.20265813  0.88863436  0.29911796    -0.09170
C1616       C  0.18493477  0.88898134  0.28879139     0.29700
F1617       F  0.18373286  0.89762512  0.27108197    -0.19700
H1618       H  0.15471869  0.88075200  0.28864789     0.18070
H1619       H  0.21679301  0.87943532  0.32576642     0.18080
F1620       F  0.18835672  0.86247059  0.34306643    -0.19680
C1621       C  0.04386321  0.09963706  0.36172390    -0.21120
C1622       C  0.04568684  0.09766934  0.38197266    -0.09160
C1623       C  0.06298635  0.10374675  0.39104987     0.29700
C1624       C  0.07808402  0.11177504  0.38004882    -0.21120
C1625       C  0.07616041  0.11415958  0.35982580    -0.09170
C1626       C  0.05883940  0.10799232  0.35073175     0.29700
F1627       F  0.05623433  0.11021016  0.33129785    -0.19700
H1628       H  0.03063661  0.09506096  0.35444606     0.18070
H1629       H  0.09122744  0.11637440  0.38744833     0.18080
F1630       F  0.06547552  0.10158918  0.41050794    -0.19680
C1631       C  0.23665012  0.99967195  0.26256790    -0.21120
C1632       C  0.24663254  0.01056890  0.27661742    -0.09160
C1633       C  0.25677061  0.00085281  0.29158436     0.29700
C1634       C  0.25720206  0.98066590  0.29217556    -0.21120
C1635       C  0.24755821  0.96974079  0.27795115    -0.09170
C1636       C  0.23705384  0.97939695  0.26320449     0.29700
F1637       F  0.22758177  0.96933172  0.24914566    -0.19700
H1638       H  0.22874869  0.00683276  0.25094276     0.18070
H1639       H  0.26536738  0.97358016  0.30367914     0.18080
F1640       F  0.26665119  0.01077358  0.30547821    -0.19680
C1641       C  0.16668387  0.11113414  0.28666336    -0.21120
C1642       C  0.16115668  0.10786811  0.30605172    -0.09160
C1643       C  0.17237297  0.09512018  0.31755911     0.29700
C1644       C  0.18913667  0.08647811  0.30998787    -0.21120
C1645       C  0.19518271  0.09048512  0.29090517    -0.09170
C1646       C  0.18356218  0.10261655  0.27914587     0.29700
F1647       F  0.18872006  0.10667166  0.26055718    -0.19700
H1648       H  0.15834462  0.12089270  0.27749424     0.18070
H1649       H  0.19777650  0.07715030  0.31934174     0.18080
F1650       F  0.16759676  0.09150561  0.33634067    -0.19680
C1651       C  0.07152755  0.86176790  0.61138659    -0.21120
C1652       C  0.07853464  0.87079740  0.62829434    -0.09160
C1653       C  0.07043296  0.88866894  0.63386519     0.29700
C1654       C  0.05564425  0.89725013  0.62265571    -0.21120
C1655       C  0.04848920  0.88810809  0.60583208    -0.09170
C1656       C  0.05657242  0.87019394  0.60034087     0.29700
F1657       F  0.04993460  0.86066356  0.58442894    -0.19700
H1658       H  0.07742983  0.84793932  0.60685233     0.18070
H1659       H  0.04964294  0.91101898  0.62728163     0.18080
F1660       F  0.07693226  0.89797575  0.64997026    -0.19680
C1661       C  0.18194043  0.88948940  0.71094752    -0.21120
C1662       C  0.19518915  0.89834521  0.69818891    -0.09160
C1663       C  0.19044097  0.89949349  0.67829451     0.29700
C1664       C  0.17329177  0.89112294  0.67129270    -0.21120
C1665       C  0.16049988  0.88140088  0.68386909    -0.09170
C1666       C  0.16472038  0.88110693  0.70390802     0.29700
F1667       F  0.15276839  0.87189190  0.71660098    -0.19700
H1668       H  0.18518242  0.88853078  0.72631840     0.18070
H1669       H  0.17047606  0.89151759  0.65580675     0.18080
F1670       F  0.20276516  0.90788160  0.66537263    -0.19680
C1671       C  0.04973927  0.10072964  0.62495109    -0.21120
C1672       C  0.04945619  0.10056982  0.60453295    -0.09160
C1673       C  0.06480803  0.10949924  0.59442880     0.29700
C1674       C  0.08006226  0.11840974  0.60460779    -0.21120
C1675       C  0.08024338  0.11882794  0.62504709    -0.09170
C1676       C  0.06484200  0.10989920  0.63514413     0.29700
F1677       F  0.06425919  0.11009253  0.65484250    -0.19700
H1678       H  0.03805111  0.09399360  0.63305974     0.18070
H1679       H  0.09170039  0.12514677  0.59643041     0.18080
F1680       F  0.06530257  0.10929667  0.57472465    -0.19680
C1681       C  0.25221187  0.00675873  0.69691806    -0.21120
C1682       C  0.24680904  0.01758033  0.71323810    -0.09160
C1683       C  0.24018098  0.00784857  0.72995578     0.29700
C1684       C  0.23953402  0.98757671  0.73039288    -0.21120
C1685       C  0.24549082  0.97676349  0.71422650    -0.09170
C1686       C  0.25154237  0.98656780  0.69732858     0.29700
F1687       F  0.25708938  0.97670723  0.68123550    -0.19700
H1688       H  0.25722689  0.01393336  0.68384157     0.18070
H1689       H  0.23485668  0.98033920  0.74355466     0.18080
F1690       F  0.23502595  0.01782133  0.74610354    -0.19680
C1691       C  0.16805480  0.10619710  0.69288916    -0.21120
C1692       C  0.16815577  0.11310855  0.67362485    -0.09160
C1693       C  0.18537333  0.11136965  0.66270107     0.29700
C1694       C  0.20208256  0.10323441  0.67098747    -0.21120
C1695       C  0.20220164  0.09688721  0.69038128    -0.09170
C1696       C  0.18494509  0.09818875  0.70125667     0.29700
F1697       F  0.18438514  0.09176127  0.71990322    -0.19700
H1698       H  0.15504604  0.10745763  0.70164801     0.18070
H1699       H  0.21520329  0.10246008  0.66231510     0.18080
F1700       F  0.18642185  0.11826376  0.64423492    -0.19680
C1701       C  0.92977624  0.86728496  0.38099031    -0.21120
C1702       C  0.92647447  0.87315490  0.36167714    -0.09160
C1703       C  0.93828327  0.88775754  0.35365760     0.29700
C1704       C  0.95316407  0.89616871  0.36479846    -0.21120
C1705       C  0.95668666  0.89003187  0.38402886    -0.09170
C1706       C  0.94477912  0.87547291  0.39202716     0.29700
F1707       F  0.94773220  0.86891423  0.41042235    -0.19700
H1708       H  0.92096144  0.85597989  0.38747552     0.18070
H1709       H  0.96210251  0.90734633  0.35826902     0.18080
F1710       F  0.93536052  0.89403320  0.33516321    -0.19680
C1711       C  0.82981528  0.89027058  0.32030439    -0.21120
C1712       C  0.84302581  0.88107858  0.30781588    -0.09160
C1713       C  0.83925446  0.88130523  0.28767985     0.29700
C1714       C  0.82215778  0.88980331  0.28041039    -0.21120
C1715       C  0.80865990  0.89839935  0.29300460    -0.09170
C1716       C  0.81283088  0.89888064  0.31303574     0.29700
F1717       F  0.80002555  0.90673494  0.32577944    -0.19700
H1718       H  0.83225539  0.89018041  0.33585271     0.18070
H1719       H  0.81929427  0.88932926  0.26494533     0.18080
F1720       F  0.85159752  0.87258559  0.27505940    -0.19680
C1721       C  0.93731189  0.10912860  0.35525419    -0.21120
C1722       C  0.92368042  0.12026483  0.36552129    -0.09160
C1723       C  0.92591033  0.12216465  0.38579921     0.29700
C1724       C  0.94151595  0.11318726  0.39545921    -0.21120
C1725       C  0.95495890  0.10184698  0.38521720    -0.09170
C1726       C  0.95271092  0.09986555  0.36497986     0.29700
F1727       F  0.96564686  0.08933139  0.35450102    -0.19700
H1728       H  0.93602399  0.10753479  0.33966380     0.18070
H1729       H  0.94293207  0.11487970  0.41103050     0.18080
F1730       F  0.91319722  0.13292176  0.39631809    -0.19680
C1731       C  0.74080291  0.00742827  0.28849862    -0.21120
C1732       C  0.75354787  0.01846750  0.27704368    -0.09160
C1733       C  0.76677769  0.00893491  0.26476282     0.29700
C1734       C  0.76710235  0.98868254  0.26400840    -0.21120
C1735       C  0.75429300  0.97767611  0.27545364    -0.09170
C1736       C  0.74110830  0.98725248  0.28774704     0.29700
F1737       F  0.72836439  0.97720305  0.29896983    -0.19700
H1738       H  0.73043046  0.01442181  0.29801939     0.18070
H1739       H  0.77738941  0.98161306  0.25446269     0.18080
F1740       F  0.77936658  0.01910115  0.25348265    -0.19680
C1741       C  0.83147332  0.09874052  0.31747820    -0.21120
C1742       C  0.83670589  0.11741556  0.31122428    -0.09160
C1743       C  0.82502663  0.12691324  0.29724722     0.29700
C1744       C  0.80836861  0.11796259  0.28987678    -0.21120
C1745       C  0.80287545  0.09946206  0.29635086    -0.09170
C1746       C  0.81473784  0.08974384  0.31004570     0.29700
F1747       F  0.81011152  0.07165677  0.31638139    -0.19700
H1748       H  0.84022590  0.09120760  0.32823672     0.18070
H1749       H  0.79938382  0.12583856  0.27955435     0.18080
F1750       F  0.82905487  0.14532818  0.29144854    -0.19680
C1751       C  0.92173069  0.87313594  0.60612332    -0.21120
C1752       C  0.92396047  0.86821269  0.62586285    -0.09160
C1753       C  0.94153351  0.87293704  0.63532470     0.29700
C1754       C  0.95643945  0.88239206  0.62519986    -0.21120
C1755       C  0.95428469  0.88709363  0.60541393    -0.09170
C1756       C  0.93673266  0.88239242  0.59594903     0.29700
F1757       F  0.93396816  0.88685630  0.57691798    -0.19700
H1758       H  0.90839280  0.86965378  0.59845771     0.18070
H1759       H  0.96985973  0.88573997  0.63279866     0.18080
F1760       F  0.94447644  0.86822931  0.65427315    -0.19680
C1761       C  0.81063748  0.89395985  0.67501353    -0.21120
C1762       C  0.80439078  0.88912969  0.69384960    -0.09160
C1763       C  0.81589244  0.87649934  0.70519043     0.29700
C1764       C  0.83289419  0.86839412  0.69751547    -0.21120
C1765       C  0.83865597  0.87254548  0.67836625    -0.09170
C1766       C  0.82752768  0.88571680  0.66727617     0.29700
F1767       F  0.83257457  0.89020111  0.64875168    -0.19700
H1768       H  0.80211166  0.90370270  0.66598941     0.18070
H1769       H  0.84112981  0.85823204  0.70633468     0.18080
F1770       F  0.81048013  0.87151447  0.72348026    -0.19680
C1771       C  0.92842878  0.11741914  0.60922594    -0.21120
C1772       C  0.92734676  0.11416439  0.62938223    -0.09160
C1773       C  0.94174879  0.10263969  0.63836789     0.29700
C1774       C  0.95678504  0.09449570  0.62731848    -0.21120
C1775       C  0.95802892  0.09806352  0.60723064    -0.09170
C1776       C  0.94368911  0.10964391  0.59827214     0.29700
F1777       F  0.94419878  0.11318996  0.57887387    -0.19700
H1778       H  0.91760542  0.12630900  0.60194665     0.18070
H1779       H  0.96766534  0.08562391  0.63454288     0.18080
F1780       F  0.94127496  0.09913782  0.65777212    -0.19680
C1781       C  0.76689768  0.99894598  0.72892580    -0.21120
C1782       C  0.75803170  0.00989095  0.71407386    -0.09160
C1783       C  0.74855055  0.00018679  0.69877642     0.29700
C1784       C  0.74775989  0.97998671  0.69857000    -0.21120
C1785       C  0.75637466  0.96901966  0.71352528    -0.09170
C1786       C  0.76614525  0.97866736  0.72867627     0.29700
F1787       F  0.77471942  0.96859276  0.74338524    -0.19700
H1788       H  0.77424481  0.00608795  0.74085624     0.18070
H1789       H  0.74015537  0.97292496  0.68673879     0.18080
F1790       F  0.73957140  0.01014947  0.68422223    -0.19680
C1791       C  0.81310762  0.11048756  0.70717180    -0.21120
C1792       C  0.80860361  0.09148145  0.70151542    -0.09160
C1793       C  0.82131948  0.08176964  0.68878346     0.29700
C1794       C  0.83786555  0.09123297  0.68147177    -0.21120
C1795       C  0.84204495  0.11045297  0.68678332    -0.09170
C1796       C  0.82952472  0.11993171  0.69987240     0.29700
F1797       F  0.83251388  0.13872327  0.70490768    -0.19700
H1798       H  0.80348305  0.11838813  0.71675994     0.18070
H1799       H  0.84723877  0.08363703  0.67141044     0.18080
F1800       F  0.81766349  0.06326018  0.68319774    -0.19680
C1801       C  0.41056558  0.97789730  0.00471022    -0.21120
C1802       C  0.41804567  0.99368928  0.01518341    -0.09160
C1803       C  0.42481585  0.01004405  0.00492513     0.29700
C1804       C  0.42435804  0.01037693  0.98463771    -0.21120
C1805       C  0.41712354  0.99449673  0.97414150    -0.09170
C1806       C  0.41003489  0.97826423  0.98439430     0.29700
F1807       F  0.40278658  0.96264022  0.97485765    -0.19700
H1808       H  0.40516291  0.96519174  0.01225347     0.18070
H1809       H  0.42991836  0.02302771  0.97712858     0.18080
F1810       F  0.43221258  0.02562494  0.01442127    -0.19680
C1811       C  0.51205474  0.97434769  0.91239542    -0.21120
C1812       C  0.52265853  0.99085645  0.90676331    -0.09160
C1813       C  0.51232262  0.00740829  0.90041393     0.29700
C1814       C  0.49186127  0.00748470  0.90021748    -0.21120
C1815       C  0.48127455  0.99114339  0.90639923    -0.09170
C1816       C  0.49164009  0.97442180  0.91220740     0.29700
F1817       F  0.48209845  0.95818034  0.91803546    -0.19700
H1818       H  0.51958624  0.96139969  0.91728903     0.18070
H1819       H  0.48429613  0.02057945  0.89578767     0.18080
F1820       F  0.52191255  0.02381444  0.89516564    -0.19680
C1821       C  0.58536218  0.01198019  0.00602923    -0.21120
C1822       C  0.58521687  0.99448081  0.01657453    -0.09160
C1823       C  0.58559827  0.97682341  0.00637830     0.29700
C1824       C  0.58574077  0.97677698  0.98609330    -0.21120
C1825       C  0.58554251  0.99425578  0.97553320    -0.09170
C1826       C  0.58553410  0.01192697  0.98571031     0.29700
F1827       F  0.58547979  0.02916186  0.97609745    -0.19700
H1828       H  0.58516350  0.02576683  0.01351751     0.18070
H1829       H  0.58583364  0.96297115  0.97863100     0.18080
F1830       F  0.58570003  0.95955466  0.01593423    -0.19680
C1831       C  0.51229401  0.97621811  0.08118701    -0.21120
C1832       C  0.52215824  0.99409437  0.08108206    -0.09160
C1833       C  0.51106891  0.01131732  0.08128185     0.29700
C1834       C  0.49064723  0.01056420  0.08133924    -0.21120
C1835       C  0.48079220  0.99269445  0.08099619    -0.09170
C1836       C  0.49187056  0.97547122  0.08107258     0.29700
F1837       F  0.48301972  0.95786888  0.08096110    -0.19700
H1838       H  0.52040713  0.96273335  0.08105757     0.18070
H1839       H  0.48252313  0.02404355  0.08122175     0.18080
F1840       F  0.51989039  0.02893437  0.08114677    -0.19680
C1841       C  0.31460245  0.08224252  0.78288658    -0.21120
C1842       C  0.30781255  0.09567337  0.79653471    -0.09160
C1843       C  0.28938228  0.10428163  0.79370000     0.29700
C1844       C  0.27825776  0.09983780  0.77723531    -0.21120
C1845       C  0.28522248  0.08669044  0.76336645    -0.09170
C1846       C  0.30342867  0.07766784  0.76652320     0.29700
F1847       F  0.31072327  0.06474613  0.75361118    -0.19700
H1848       H  0.32874018  0.07546054  0.78473814     0.18070
H1849       H  0.26434896  0.10699238  0.77515530     0.18080
F1850       F  0.28246901  0.11767947  0.80633173    -0.19680
C1851       C  0.36688223  0.05246839  0.86553695    -0.21120
C1852       C  0.37143693  0.07182044  0.87001857    -0.09160
C1853       C  0.38652433  0.07552299  0.88344956     0.29700
C1854       C  0.39668019  0.06014235  0.89222401    -0.21120
C1855       C  0.39239747  0.04085533  0.88737098    -0.09170
C1856       C  0.37736726  0.03712270  0.87395416     0.29700
F1857       F  0.37249210  0.01861933  0.86932239    -0.19700
H1858       H  0.35540140  0.04920432  0.85523123     0.18070
H1859       H  0.40816076  0.06331338  0.90256245     0.18080
F1860       F  0.39148036  0.09398096  0.88815082    -0.19680
C1861       C  0.33020742  0.16927225  0.88731743    -0.21120
C1862       C  0.31888193  0.15849380  0.87426855    -0.09160
C1863       C  0.29978030  0.16470189  0.86998734     0.29700
C1864       C  0.29249168  0.18182774  0.87812989    -0.21120
C1865       C  0.30402381  0.19289116  0.89082600    -0.09170
C1866       C  0.32285775  0.18618300  0.89568289     0.29700
F1867       F  0.33452005  0.19628011  0.90798764    -0.19700
H1868       H  0.34496930  0.16480410  0.89074160     0.18070
H1869       H  0.27797991  0.18664011  0.87418461     0.18080
F1870       F  0.28858320  0.15490335  0.85703313    -0.19680
C1871       C  0.28174824  0.08857460  0.18777351    -0.21120
C1872       C  0.30221985  0.08844231  0.18902292    -0.09160
C1873       C  0.31108900  0.08336695  0.20680994     0.29700
C1874       C  0.29975656  0.07900074  0.22298337    -0.21120
C1875       C  0.27932756  0.07960992  0.22197400    -0.09170
C1876       C  0.27034436  0.08415825  0.20409685     0.29700
F1877       F  0.25063256  0.08467381  0.20244073    -0.19700
H1878       H  0.27457362  0.09249722  0.17428897     0.18070
H1879       H  0.30709667  0.07554452  0.23650939     0.18080
F1880       F  0.33077797  0.08330571  0.20891137    -0.19680
C1881       C  0.36428875  0.06234292  0.09907175    -0.21120
C1882       C  0.36685653  0.06632273  0.11889422    -0.09160
C1883       C  0.38044360  0.05525531  0.12963436     0.29700
C1884       C  0.39127884  0.04066334  0.12065432    -0.21120
C1885       C  0.38887715  0.03676607  0.10080384    -0.09170
C1886       C  0.37522533  0.04777290  0.09004412     0.29700
F1887       F  0.37249939  0.04460437  0.07078104    -0.19700
H1888       H  0.35401360  0.07070597  0.09048410     0.18070
H1889       H  0.40154319  0.03235673  0.12930488     0.18080
F1890       F  0.38315941  0.05834470  0.14891505    -0.19680
C1891       C  0.26586801  0.23193637  0.00124295    -0.21120
C1892       C  0.28242190  0.23696769  0.01217127    -0.09160
C1893       C  0.29952621  0.24264139  0.00248760     0.29700
C1894       C  0.29979325  0.24381314  0.98230469    -0.21120
C1895       C  0.28314282  0.23923014  0.97139304    -0.09170
C1896       C  0.26618462  0.23303635  0.98097653     0.29700
F1897       F  0.24971768  0.22879675  0.97086472    -0.19700
H1898       H  0.25251218  0.22765232  0.00839482     0.18070
H1899       H  0.31306319  0.24844785  0.97519425     0.18080
F1900       F  0.31594949  0.24735731  0.01246245    -0.19680
C1901       C  0.29523708  0.15596290  0.10545477    -0.21120
C1902       C  0.31490049  0.15547258  0.11134372    -0.09160
C1903       C  0.32663258  0.17186823  0.10790730     0.29700
C1904       C  0.31882166  0.18832269  0.09896168    -0.21120
C1905       C  0.29912506  0.18902352  0.09342104    -0.09170
C1906       C  0.28736506  0.17260789  0.09656396     0.29700
F1907       F  0.26835773  0.17260977  0.09102638    -0.19700
H1908       H  0.28589301  0.14357094  0.10798240     0.18070
H1909       H  0.32816062  0.20081524  0.09687255     0.18080
F1910       F  0.34551179  0.17240141  0.11387403    -0.19680
C1911       C  0.69788800  0.07509393  0.78977350    -0.21120
C1912       C  0.70453847  0.08951376  0.80250407    -0.09160
C1913       C  0.72265037  0.09842086  0.79888564     0.29700
C1914       C  0.73355577  0.09326433  0.78253580    -0.21120
C1915       C  0.72651584  0.07933929  0.76945120    -0.09170
C1916       C  0.70871871  0.07002239  0.77342368     0.29700
F1917       F  0.70165301  0.05610296  0.76141962    -0.19700
H1918       H  0.68406729  0.06795817  0.79227260     0.18070
H1919       H  0.74714913  0.10070940  0.77970692     0.18080
F1920       F  0.72940197  0.11275945  0.81056553    -0.19680
C1921       C  0.63470589  0.03423320  0.88671818    -0.21120
C1922       C  0.61532141  0.03773764  0.89229949    -0.09160
C1923       C  0.60754455  0.05647703  0.88981102     0.29700
C1924       C  0.61887682  0.07122863  0.88159965    -0.21120
C1925       C  0.63815756  0.06764349  0.87571517    -0.09170
C1926       C  0.64602668  0.04897374  0.87847039     0.29700
F1927       F  0.66445347  0.04476069  0.87273185    -0.19700
H1928       H  0.64105367  0.01993567  0.88845021     0.18070
H1929       H  0.61245041  0.08546533  0.87965850     0.18080
F1930       F  0.58901486  0.06060017  0.89528532    -0.19680
C1931       C  0.68768668  0.18793587  0.88706962    -0.21120
C1932       C  0.70541494  0.18717803  0.89728028    -0.09160
C1933       C  0.71482919  0.16914788  0.89964352     0.29700
C1934       C  0.70675096  0.15234291  0.89137241    -0.21120
C1935       C  0.68905540  0.15330089  0.88101487    -0.09170
C1936       C  0.67956183  0.17131427  0.87908508     0.29700
F1937       F  0.66281263  0.17316787  0.86865180    -0.19700
H1938       H  0.68005495  0.20156478  0.88501773     0.18070
H1939       H  0.71438288  0.13866462  0.89289044     0.18080
F1940       F  0.73185565  0.16778410  0.90965350    -0.19680
C1941       C  0.71524576  0.10110700  0.19597932    -0.21120
C1942       C  0.69697088  0.09218050  0.19382063    -0.09160
C1943       C  0.69069457  0.07888243  0.20796423     0.29700
C1944       C  0.70220155  0.07519737  0.22435072    -0.21120
C1945       C  0.72008169  0.08479534  0.22699974    -0.09170
C1946       C  0.72668641  0.09758776  0.21248436     0.29700
F1947       F  0.74365063  0.10747296  0.21466849    -0.19700
H1948       H  0.72022987  0.11161506  0.18536758     0.18070
H1949       H  0.69687185  0.06515083  0.23522011     0.18080
F1950       F  0.67328969  0.06970738  0.20613036    -0.19680
C1951       C  0.60610563  0.04640391  0.12243306    -0.21120
C1952       C  0.61211829  0.04035931  0.10395653    -0.09160
C1953       C  0.62841075  0.04941323  0.09542658     0.29700
C1954       C  0.63835069  0.06419934  0.10525827    -0.21120
C1955       C  0.63226451  0.07026923  0.12372251    -0.09170
C1956       C  0.61599961  0.06115753  0.13223504     0.29700
F1957       F  0.60958658  0.06642644  0.15008030    -0.19700
H1958       H  0.59368666  0.03967130  0.12937918     0.18070
H1959       H  0.65077625  0.07096923  0.09836143     0.18080
F1960       F  0.63478397  0.04403089  0.07760454    -0.19680
C1961       C  0.70225204  0.24090747  0.00957004    -0.21120
C1962       C  0.71949607  0.24009085  0.02055679    -0.09160
C1963       C  0.73744667  0.23785816  0.01106805     0.29700
C1964       C  0.73805471  0.23665593  0.99085985    -0.21120
C1965       C  0.72082039  0.23765304  0.97982511    -0.09170
C1966       C  0.70283795  0.23961373  0.98937170     0.29700
F1967       F  0.68582902  0.24040173  0.97925494    -0.19700
H1968       H  0.68827165  0.24252718  0.01664112     0.18070
H1969       H  0.75208197  0.23532441  0.98382382     0.18080
F1970       F  0.75444856  0.23755258  0.02122405    -0.19680
C1971       C  0.70937494  0.18349037  0.11639933    -0.21120
C1972       C  0.69931564  0.19228183  0.10091401    -0.09160
C1973       C  0.68209563  0.18354249  0.09392815     0.29700
C1974       C  0.67478006  0.16680312  0.10283990    -0.21120
C1975       C  0.68460649  0.15832357  0.11862915    -0.09170
C1976       C  0.70215465  0.16667597  0.12518396     0.29700
F1977       F  0.71181129  0.15925253  0.14078419    -0.19700
H1978       H  0.72257814  0.18994051  0.12210433     0.18070
H1979       H  0.66125818  0.16062961  0.09757587     0.18080
F1980       F  0.67202467  0.19137957  0.07880088    -0.19680
C1981       C  0.31119804  0.90350930  0.78455723    -0.21120
C1982       C  0.30203448  0.89674452  0.80147674    -0.09160
C1983       C  0.28155965  0.89540389  0.80175303     0.29700
C1984       C  0.27063165  0.90024085  0.78515371    -0.21120
C1985       C  0.27991618  0.90660355  0.76811473    -0.09170
C1986       C  0.30035477  0.90840019  0.76808306     0.29700
F1987       F  0.31003717  0.91426528  0.75193322    -0.19700
H1988       H  0.32692791  0.90463674  0.78387874     0.18070
H1989       H  0.25493358  0.89879216  0.78555623     0.18080
F1990       F  0.27212420  0.88895934  0.81781318    -0.19680
C1991       C  0.35769371  0.93534318  0.88099398    -0.21120
C1992       C  0.36714120  0.91816025  0.87539790    -0.09160
C1993       C  0.38740692  0.91649598  0.87843643     0.29700
C1994       C  0.39796386  0.93189575  0.88637782    -0.21120
C1995       C  0.38857638  0.94914333  0.89173038    -0.09170
C1996       C  0.36826023  0.95069006  0.88915265     0.29700
F1997       F  0.35869137  0.96725652  0.89386907    -0.19700
H1998       H  0.34215694  0.93704734  0.87874325     0.18070
H1999       H  0.41354301  0.93030316  0.88837743     0.18080
F2000       F  0.39715332  0.90008588  0.87354101    -0.19680
C2001       C  0.31688696  0.80544964  0.90220849    -0.21120
C2002       C  0.29741077  0.79990502  0.89917359    -0.09160
C2003       C  0.28527237  0.81192867  0.88781114     0.29700
C2004       C  0.29279622  0.82866089  0.87899720    -0.21120
C2005       C  0.31252218  0.83370002  0.88131204    -0.09170
C2006       C  0.32442512  0.82209964  0.89337055     0.29700
F2007       F  0.34358700  0.82628683  0.89598607    -0.19700
H2008       H  0.32655946  0.79649790  0.91091119     0.18070
H2009       H  0.28331923  0.83732419  0.86983129     0.18080
F2010       F  0.26628392  0.80730223  0.88477412    -0.19680
C2011       C  0.28933669  0.88705270  0.19547993    -0.21120
C2012       C  0.30830785  0.89461061  0.19424199    -0.09160
C2013       C  0.31541477  0.90625126  0.20936450     0.29700
C2014       C  0.30381286  0.90996784  0.22556669    -0.21120
C2015       C  0.28508004  0.90184380  0.22717940    -0.09170
C2016       C  0.27786242  0.89042456  0.21187859     0.29700
F2017       F  0.25994657  0.88215708  0.21289981    -0.19700
H2018       H  0.28368711  0.87779804  0.18409687     0.18070
H2019       H  0.30972638  0.91884225  0.23710846     0.18080
F2020       F  0.33362834  0.91388373  0.20858235    -0.19680
C2021       C  0.36103692  0.92814166  0.10823636    -0.21120
C2022       C  0.37131442  0.91506866  0.12018339    -0.09160
C2023       C  0.39157149  0.91757731  0.12256665     0.29700
C2024       C  0.40119693  0.93290244  0.11332124    -0.21120
C2025       C  0.39096493  0.94594831  0.10133450    -0.09170
C2026       C  0.37073670  0.94336596  0.09878357     0.29700
F2027       F  0.36022394  0.95574174  0.08747598    -0.19700
H2028       H  0.34546290  0.92658668  0.10621076     0.18070
H2029       H  0.41673611  0.93455033  0.11556002     0.18080
F2030       F  0.40209640  0.90549785  0.13418787    -0.19680
C2031       C  0.29964522  0.74265737  0.00904431    -0.21120
C2032       C  0.28301750  0.74753849  0.01975155    -0.09160
C2033       C  0.26614101  0.75385866  0.00992139     0.29700
C2034       C  0.26592290  0.75491144  0.98965271    -0.21120
C2035       C  0.28248763  0.74970936  0.97894138    -0.09170
C2036       C  0.29946545  0.74376175  0.98885185     0.29700
F2037       F  0.31586103  0.73872775  0.97909880    -0.19700
H2038       H  0.31283738  0.73787902  0.01630916     0.18070
H2039       H  0.25266956  0.75941356  0.98233557     0.18080
F2040       F  0.24969631  0.75846797  0.01979486    -0.19680
C2041       C  0.29599114  0.80076803  0.11936515    -0.21120
C2042       C  0.30206974  0.79537320  0.10074587    -0.09160
C2043       C  0.31565034  0.80714197  0.09088177     0.29700
C2044       C  0.32331336  0.82370783  0.09981971    -0.21120
C2045       C  0.31739630  0.82888015  0.11857031    -0.09170
C2046       C  0.30358957  0.81727215  0.12825111     0.29700
F2047       F  0.29819529  0.82123456  0.14677100    -0.19700
H2048       H  0.28580673  0.79182947  0.12736905     0.18070
H2049       H  0.33395715  0.83240912  0.09215833     0.18080
F2050       F  0.32166921  0.80258012  0.07270653    -0.19680
C2051       C  0.68739104  0.89041752  0.77605180    -0.21120
C2052       C  0.69534121  0.89106732  0.79486028    -0.09160
C2053       C  0.71520349  0.89573411  0.79714962     0.29700
C2054       C  0.72680088  0.89947721  0.78079995    -0.21120
C2055       C  0.71870628  0.89881771  0.76203382    -0.09170
C2056       C  0.69886056  0.89422456  0.75983946     0.29700
F2057       F  0.69059319  0.89279322  0.74194961    -0.19700
H2058       H  0.67223764  0.88663545  0.77379203     0.18070
H2059       H  0.74204122  0.90302149  0.78280233     0.18080
F2060       F  0.72345714  0.89650128  0.81507262    -0.19680
C2061       C  0.64127644  0.93079155  0.87896216    -0.21120
C2062       C  0.63094800  0.91647605  0.86878442    -0.09160
C2063       C  0.61043820  0.91773913  0.86780758     0.29700
C2064       C  0.60060124  0.93309435  0.87674699    -0.21120
C2065       C  0.61093956  0.94718687  0.88717089    -0.09170
C2066       C  0.63140158  0.94591478  0.88821420     0.29700
F2067       F  0.64192032  0.95955396  0.89780107    -0.19700
H2068       H  0.65702509  0.93023404  0.87984933     0.18070
H2069       H  0.58485734  0.93378654  0.87580678     0.18080
F2070       F  0.59984554  0.90426681  0.85807164    -0.19680
C2071       C  0.71237563  0.80757543  0.88080339    -0.21120
C2072       C  0.70000672  0.79574012  0.89191975    -0.09160
C2073       C  0.68067838  0.80185924  0.89510307     0.29700
C2074       C  0.67377856  0.81905953  0.88672752    -0.21120
C2075       C  0.68587016  0.83044963  0.87488934    -0.09170
C2076       C  0.70541245  0.82474617  0.87230885     0.29700
F2077       F  0.71766647  0.83541904  0.86112947    -0.19700
H2078       H  0.72732265  0.80327108  0.87821962     0.18070
H2079       H  0.65866293  0.82302890  0.88886469     0.18080
F2080       F  0.66816010  0.79093065  0.90573924    -0.19680
C2081       C  0.71892651  0.90630091  0.18778184    -0.21120
C2082       C  0.70168162  0.89556129  0.19028012    -0.09160
C2083       C  0.69650174  0.88940692  0.20907810     0.29700
C2084       C  0.70806726  0.89416096  0.22495423    -0.21120
C2085       C  0.72517434  0.90500120  0.22263024    -0.09170
C2086       C  0.73063634  0.91104787  0.20387664     0.29700
F2087       F  0.74691879  0.92187030  0.20116860    -0.19700
H2088       H  0.72325571  0.91108688  0.17343840     0.18070
H2089       H  0.70364201  0.88913652  0.23919447     0.18080
F2090       F  0.68045382  0.87832242  0.21220477    -0.19680
C2091       C  0.61092512  0.94445404  0.12084385    -0.21120
C2092       C  0.61522219  0.95067458  0.10190460    -0.09160
C2093       C  0.63081845  0.94185534  0.09199635     0.29700
C2094       C  0.64173980  0.92709406  0.10091959    -0.21120
C2095       C  0.63735465  0.92081255  0.11983346    -0.09170
C2096       C  0.62182702  0.92973046  0.12975836     0.29700
F2097       F  0.61710574  0.92427980  0.14811234    -0.19700
H2098       H  0.59908466  0.95103337  0.12883993     0.18070
H2099       H  0.65354612  0.92044828  0.09293175     0.18080
F2100       F  0.63545319  0.94732280  0.07362684    -0.19680
C2101       C  0.73788455  0.75492698  0.00095700    -0.21120
C2102       C  0.72129111  0.75007764  0.01181712    -0.09160
C2103       C  0.70394947  0.74516883  0.00203143     0.29700
C2104       C  0.70347504  0.74454630  0.98181947    -0.21120
C2105       C  0.72016516  0.74890277  0.97095619    -0.09170
C2106       C  0.73737125  0.75437015  0.98066565     0.29700
F2107       F  0.75387262  0.75847348  0.97064866    -0.19700
H2108       H  0.75139461  0.75871388  0.00817156     0.18070
H2109       H  0.69003302  0.74043554  0.97465869     0.18080
F2110       F  0.68747221  0.74066907  0.01192665    -0.19680
C2111       C  0.68251609  0.82462023  0.09569007    -0.21120
C2112       C  0.69340949  0.83393187  0.11019918    -0.09160
C2113       C  0.71192492  0.82649376  0.11516149     0.29700
C2114       C  0.71893661  0.80963375  0.10629084    -0.21120
C2115       C  0.70773044  0.79995405  0.09224907    -0.09170
C2116       C  0.68956859  0.80787056  0.08673109     0.29700
F2117       F  0.67817609  0.79902820  0.07325888    -0.19700
H2118       H  0.66822284  0.82998949  0.09164533     0.18070
H2119       H  0.73293308  0.80386967  0.11079190     0.18080
F2120       F  0.72287133  0.83489186  0.12926861    -0.19680
C2121       C  0.99116990  0.41154173  0.97901841    -0.21120
C2122       C  0.98136282  0.40929243  0.99674885    -0.09160
C2123       C  0.99233506  0.40587294  0.01374158     0.29700
C2124       C  0.01272646  0.40513044  0.01293602    -0.21120
C2125       C  0.02252632  0.40775857  0.99522414    -0.09170
C2126       C  0.01149084  0.41082839  0.97820651     0.29700
F2127       F  0.02027141  0.41354807  0.96077432    -0.19700
H2128       H  0.98310288  0.41413803  0.96571715     0.18070
H2129       H  0.02085903  0.40272837  0.02623417     0.18080
F2130       F  0.98343107  0.40326573  0.03112473    -0.19680
C2131       C  0.90873269  0.50452345  0.00899094    -0.21120
C2132       C  0.91748983  0.51450828  0.99345255    -0.09160
C2133       C  0.92588446  0.50358982  0.97836245     0.29700
C2134       C  0.92552191  0.48325114  0.97892325    -0.21120
C2135       C  0.91701834  0.47327750  0.99458453    -0.09170
C2136       C  0.90848916  0.48415904  0.00960265     0.29700
F2137       F  0.89976109  0.47515234  0.02481921    -0.19700
H2138       H  0.90211520  0.51250258  0.02077655     0.18070
H2139       H  0.93233734  0.47526789  0.96724566     0.18080
F2140       F  0.93492744  0.51250329  0.96327283    -0.19680
C2141       C  0.99246189  0.57650545  0.97817325    -0.21120
C2142       C  0.98195393  0.57702941  0.99563732    -0.09160
C2143       C  0.99225787  0.57790152  0.01332403     0.29700
C2144       C  0.01264699  0.57796482  0.01343208    -0.21120
C2145       C  0.02314974  0.57705813  0.99597575    -0.09170
C2146       C  0.01283555  0.57646865  0.97828399     0.29700
F2147       F  0.02236790  0.57582182  0.96106017    -0.19700
H2148       H  0.98489929  0.57590523  0.96436206     0.18070
H2149       H  0.02022353  0.57847332  0.02724087     0.18080
F2150       F  0.98270218  0.57865800  0.03053003    -0.19680
C2151       C  0.10418643  0.50343780  0.99249342    -0.21120
C2152       C  0.08678102  0.51362567  0.99600548    -0.09160
C2153       C  0.06945069  0.50308476  0.99856660     0.29700
C2154       C  0.06952699  0.48284494  0.99757338    -0.21120
C2155       C  0.08690303  0.47252241  0.99438541    -0.09170
C2156       C  0.10434095  0.48302212  0.99196072     0.29700
F2157       F  0.12143432  0.47363197  0.98884148    -0.19700
H2158       H  0.11769709  0.51127435  0.99047779     0.18070
H2159       H  0.05587955  0.47520378  0.99948145     0.18080
F2160       F  0.05225658  0.51237915  0.00152306    -0.19680
C2161       C  0.78209901  0.30956473  0.09307863    -0.21120
C2162       C  0.80039610  0.30082033  0.09585701    -0.09160
C2163       C  0.80192680  0.28048256  0.09456420     0.29700
C2164       C  0.78531421  0.26921202  0.09094781    -0.21120
C2165       C  0.76698255  0.27801754  0.08848963    -0.09170
C2166       C  0.76556755  0.29836362  0.08948991     0.29700
F2167       F  0.74809052  0.30748271  0.08771646    -0.19700
H2168       H  0.78042966  0.32514678  0.09423525     0.18070
H2169       H  0.78677058  0.25358822  0.09016698     0.18080
F2170       F  0.81935048  0.27145012  0.09708760    -0.19680
C2171       C  0.88920078  0.35413486  0.06156583    -0.21120
C2172       C  0.87591556  0.36389858  0.07354073    -0.09160
C2173       C  0.87232260  0.38376261  0.07012421     0.29700
C2174       C  0.88165426  0.39349231  0.05491454    -0.21120
C2175       C  0.89499715  0.38378187  0.04298668    -0.09170
C2176       C  0.89880890  0.36397855  0.04653693     0.29700
F2177       F  0.91146142  0.35398398  0.03522876    -0.19700
H2178       H  0.89219836  0.33886987  0.06387474     0.18070
H2179       H  0.87845665  0.40870311  0.05249735     0.18080
F2180       F  0.85942540  0.39374425  0.08117339    -0.19680
C2181       C  0.90321564  0.20993691  0.27095429    -0.21120
C2182       C  0.91000707  0.22707674  0.27958433    -0.09160
C2183       C  0.91364059  0.22725966  0.29973350     0.29700
C2184       C  0.90997508  0.21081035  0.31101342    -0.21120
C2185       C  0.90280780  0.19379255  0.30249774    -0.09170
C2186       C  0.89974302  0.19336192  0.28225772     0.29700
F2187       F  0.89251720  0.17727879  0.27349956    -0.19700
H2188       H  0.90035872  0.20944063  0.25548818     0.18070
H2189       H  0.91229874  0.21156021  0.32655826     0.18080
F2190       F  0.91997338  0.24357264  0.30875211    -0.19680
C2191       C  0.89108446  0.28526036  0.18018543    -0.21120
C2192       C  0.89618300  0.29783141  0.19537648    -0.09160
C2193       C  0.89367185  0.31795970  0.19271885     0.29700
C2194       C  0.88589815  0.32523730  0.17540125    -0.21120
C2195       C  0.88030275  0.31269545  0.16038572    -0.09170
C2196       C  0.88323521  0.29258543  0.16280376     0.29700
F2197       F  0.87821316  0.27996625  0.14856103    -0.19700
H2198       H  0.89301681  0.26974571  0.18182642     0.18070
H2199       H  0.88356874  0.34073154  0.17406112     0.18080
F2200       F  0.89797759  0.33065492  0.20713529    -0.19680
C2201       C  0.21114486  0.30282177  0.08251059    -0.21120
C2202       C  0.19392663  0.29373937  0.08867157    -0.09160
C2203       C  0.19357738  0.27336448  0.09032466     0.29700
C2204       C  0.21041582  0.26247417  0.08650468    -0.21120
C2205       C  0.22777630  0.27171059  0.08092519    -0.09170
C2206       C  0.22788776  0.29202872  0.07875470     0.29700
F2207       F  0.24441282  0.30166340  0.07382991    -0.19700
H2208       H  0.21195070  0.31848102  0.08133674     0.18070
H2209       H  0.20994652  0.24685621  0.08813885     0.18080
F2210       F  0.17720671  0.26400465  0.09615037    -0.19680
C2211       C  0.11038960  0.38989999  0.05807548    -0.21120
C2212       C  0.10668040  0.38101381  0.04012287    -0.09160
C2213       C  0.11137254  0.36122724  0.03787251     0.29700
C2214       C  0.11966690  0.35070831  0.05323560    -0.21120
C2215       C  0.12361997  0.35964683  0.07109516    -0.09170
C2216       C  0.11878102  0.37937551  0.07342776     0.29700
F2217       F  0.12206880  0.38852074  0.09054806    -0.19700
H2218       H  0.10683656  0.40504800  0.06023435     0.18070
H2219       H  0.12336161  0.33559734  0.05100546     0.18080
F2220       F  0.10828991  0.35204401  0.02073001    -0.19680
C2221       C  0.00894818  0.28868507  0.25356711    -0.21120
C2222       C  0.01832418  0.27457509  0.24231556    -0.09160
C2223       C  0.00702805  0.26163350  0.23124737     0.29700
C2224       C  0.98668401  0.26279259  0.23166972    -0.21120
C2225       C  0.97735249  0.27677292  0.24315871    -0.09170
C2226       C  0.98870366  0.28980368  0.25405120     0.29700
F2227       F  0.98032199  0.30357620  0.26533566    -0.19700
H2228       H  0.01729871  0.29883270  0.26220165     0.18070
H2229       H  0.97823338  0.25257889  0.22321135     0.18080
F2230       F  0.01555518  0.24778815  0.22017318    -0.19680
C2231       C  0.09243276  0.20352259  0.26454990    -0.21120
C2232       C  0.08599830  0.22051990  0.27373463    -0.09160
C2233       C  0.08402536  0.22053890  0.29409397     0.29700
C2234       C  0.08894911  0.20413762  0.30496665    -0.21120
C2235       C  0.09591931  0.18732496  0.29591049    -0.09170
C2236       C  0.09731260  0.18700524  0.27550451     0.29700
F2237       F  0.10407805  0.17106295  0.26617677    -0.19700
H2238       H  0.09408040  0.20314668  0.24892323     0.18070
H2239       H  0.08778038  0.20481508  0.32063226     0.18080
F2240       F  0.07808208  0.23665082  0.30369792    -0.19680
C2241       C  0.10217367  0.30362294  0.16025054    -0.21120
C2242       C  0.12223210  0.30051087  0.15770941    -0.09160
C2243       C  0.13247911  0.28944086  0.17166156     0.29700
C2244       C  0.12296578  0.28228548  0.18808091    -0.21120
C2245       C  0.10310485  0.28604501  0.19104130    -0.09170
C2246       C  0.09265231  0.29650439  0.17676094     0.29700
F2247       F  0.07337450  0.30034636  0.17895085    -0.19700
H2248       H  0.09395959  0.31206928  0.14974537     0.18070
H2249       H  0.13133823  0.27428275  0.19879535     0.18080
F2250       F  0.15186584  0.28597341  0.16982063    -0.19680
C2251       C  0.79061333  0.68329284  0.08569551    -0.21120
C2252       C  0.80862440  0.69224639  0.08926178    -0.09160
C2253       C  0.80977294  0.71264675  0.08840010     0.29700
C2254       C  0.79301722  0.72374953  0.08457132    -0.21120
C2255       C  0.77489917  0.71471932  0.08157419    -0.09170
C2256       C  0.77394952  0.69430187  0.08195207     0.29700
F2257       F  0.75681424  0.68484241  0.07921885    -0.19700
H2258       H  0.78923504  0.66765268  0.08638968     0.18070
H2259       H  0.79416299  0.73941406  0.08424720     0.18080
F2260       F  0.82688596  0.72190541  0.09182127    -0.19680
C2261       C  0.89256611  0.63696182  0.05628993    -0.21120
C2262       C  0.87944674  0.62799754  0.06910154    -0.09160
C2263       C  0.87535801  0.60809621  0.06670126     0.29700
C2264       C  0.88398551  0.59758816  0.05166818    -0.21120
C2265       C  0.89702217  0.60654259  0.03881267    -0.09170
C2266       C  0.90130031  0.62638477  0.04129088     0.29700
F2267       F  0.91356934  0.63570868  0.02897907    -0.19700
H2268       H  0.89594049  0.65223136  0.05776554     0.18070
H2269       H  0.88054515  0.58233592  0.05017319     0.18080
F2270       F  0.86311426  0.59865406  0.07895097    -0.19680
C2271       C  0.92258729  0.76936023  0.29139023    -0.21120
C2272       C  0.91552575  0.76759809  0.27228581    -0.09160
C2273       C  0.90425916  0.78278041  0.26436008     0.29700
C2274       C  0.89966312  0.79902812  0.27564861    -0.21120
C2275       C  0.90614607  0.80039831  0.29500700    -0.09170
C2276       C  0.91796706  0.78551060  0.30265878     0.29700
F2277       F  0.92469870  0.78624630  0.32120746    -0.19700
H2278       H  0.93137692  0.75796712  0.29784943     0.18070
H2279       H  0.89051080  0.81026117  0.26941802     0.18080
F2280       F  0.89716180  0.78169963  0.24597039    -0.19680
C2281       C  0.89220852  0.70959911  0.17915475    -0.21120
C2282       C  0.90498690  0.69784769  0.19001053    -0.09160
C2283       C  0.90940936  0.67911647  0.18315226     0.29700
C2284       C  0.90058075  0.67211707  0.16624813    -0.21120
C2285       C  0.88722612  0.68358323  0.15579616    -0.09170
C2286       C  0.88338820  0.70259493  0.16221872     0.29700
F2287       F  0.87048204  0.71416875  0.15266130    -0.19700
H2288       H  0.88857477  0.72405877  0.18408022     0.18070
H2289       H  0.90378749  0.65744816  0.16165107     0.18080
F2290       F  0.92179700  0.66726525  0.19305188    -0.19680
C2291       C  0.22093997  0.67816339  0.09531658    -0.21120
C2292       C  0.20213898  0.68623512  0.09499310    -0.09160
C2293       C  0.19995004  0.70609264  0.09057140     0.29700
C2294       C  0.21639941  0.71762381  0.08698300    -0.21120
C2295       C  0.23519044  0.70950395  0.08763438    -0.09170
C2296       C  0.23728066  0.68960464  0.09176069     0.29700
F2297       F  0.25518846  0.68128835  0.09319419    -0.19700
H2298       H  0.22311628  0.66301201  0.09896912     0.18070
H2299       H  0.21445988  0.73289024  0.08374917     0.18080
F2300       F  0.18202276  0.71442823  0.09000183    -0.19680
C2301       C  0.11277464  0.63149206  0.06448601    -0.21120
C2302       C  0.12907369  0.62328408  0.07381483    -0.09160
C2303       C  0.13533794  0.60465787  0.06816111     0.29700
C2304       C  0.12553612  0.59462366  0.05346465    -0.21120
C2305       C  0.10936136  0.60289047  0.04400593    -0.09170
C2306       C  0.10300214  0.62146215  0.04971877     0.29700
F2307       F  0.08735574  0.62998832  0.04107025    -0.19700
H2308       H  0.10759709  0.64574417  0.06858418     0.18070
H2309       H  0.13078188  0.58040332  0.04933207     0.18080
F2310       F  0.15100499  0.59608757  0.07673047    -0.19680
C2311       C  0.01549275  0.71248363  0.26124386    -0.21120
C2312       C  0.02603657  0.71333936  0.24387804    -0.09160
C2313       C  0.01605989  0.71575457  0.22616422     0.29700
C2314       C  0.99570050  0.71702046  0.22593545    -0.21120
C2315       C  0.98516907  0.71583448  0.24334153    -0.09170
C2316       C  0.99525658  0.71383566  0.26104497     0.29700
F2317       F  0.98559568  0.71346897  0.27821774    -0.19700
H2318       H  0.02296507  0.71094975  0.27505086     0.18070
H2319       H  0.98815459  0.71843989  0.21216525     0.18080
F2320       F  0.02589558  0.71615442  0.20910045    -0.19680
C2321       C  0.09533644  0.75943531  0.29893868    -0.21120
C2322       C  0.09590204  0.76076611  0.27858894    -0.09160
C2323       C  0.09989801  0.77883641  0.26990737     0.29700
C2324       C  0.10366268  0.79509940  0.28152127    -0.21120
C2325       C  0.10343681  0.79359013  0.30190608    -0.09170
C2326       C  0.09907971  0.77556132  0.31048734     0.29700
F2327       F  0.09911280  0.77322693  0.33007824    -0.19700
H2328       H  0.09232674  0.74572215  0.30604269     0.18070
H2329       H  0.10708079  0.80878786  0.27457318     0.18080
F2330       F  0.10031044  0.78078819  0.25029367    -0.19680
C2331       C  0.11692543  0.70283631  0.18301964    -0.21120
C2332       C  0.10623283  0.69047257  0.19522339    -0.09160
C2333       C  0.10363768  0.67097054  0.18974723     0.29700
C2334       C  0.11212327  0.66395192  0.17273123    -0.21120
C2335       C  0.12329822  0.67617496  0.16081028    -0.09170
C2336       C  0.12534948  0.69583216  0.16595806     0.29700
F2337       F  0.13607878  0.70817553  0.15493290    -0.19700
H2338       H  0.11908162  0.71790333  0.18686012     0.18070
H2339       H  0.11040488  0.64875021  0.16918523     0.18080
F2340       F  0.09353497  0.65844278  0.20115526    -0.19680
C2341       C  0.78862649  0.29871581  0.89428813    -0.21120
C2342       C  0.80756104  0.29246373  0.89901203    -0.09160
C2343       C  0.81014293  0.27405314  0.90761421     0.29700
C2344       C  0.79390314  0.26224347  0.91143556    -0.21120
C2345       C  0.77504214  0.26880899  0.90687187    -0.09170
C2346       C  0.77256221  0.28705799  0.89814147     0.29700
F2347       F  0.75454036  0.29345389  0.89292312    -0.19700
H2348       H  0.78620738  0.31260831  0.88726999     0.18070
H2349       H  0.79598193  0.24826120  0.91836374     0.18080
F2350       F  0.82819869  0.26765394  0.91261400    -0.19680
C2351       C  0.86788660  0.37508330  0.93000310    -0.21120
C2352       C  0.87702679  0.35805879  0.92340454    -0.09160
C2353       C  0.89490430  0.35249965  0.93181878     0.29700
C2354       C  0.90341048  0.36383000  0.94639967    -0.21120
C2355       C  0.89431365  0.38090489  0.95292888    -0.09170
C2356       C  0.87637677  0.38639761  0.94459745     0.29700
F2357       F  0.86702912  0.40271712  0.95044737    -0.19700
H2358       H  0.85413055  0.37973660  0.92378953     0.18070
H2359       H  0.91719841  0.35921786  0.95257046     0.18080
F2360       F  0.90428738  0.33622689  0.92590039    -0.19680
C2361       C  0.90733544  0.20321939  0.72629318    -0.21120
C2362       C  0.91697639  0.21914037  0.71788082    -0.09160
C2363       C  0.92258379  0.21805435  0.69824431     0.29700
C2364       C  0.91793174  0.20175595  0.68718129    -0.21120
C2365       C  0.90784451  0.18608450  0.69541737    -0.09170
C2366       C  0.90284688  0.18678244  0.71521131     0.29700
F2367       F  0.89267339  0.17210456  0.72357955    -0.19700
H2368       H  0.90283619  0.20367939  0.74134101     0.18070
H2369       H  0.92189647  0.20156777  0.67196957     0.18080
F2370       F  0.93203719  0.23297181  0.68946145    -0.19680
C2371       C  0.88528634  0.28412299  0.83097597    -0.21120
C2372       C  0.88691486  0.30394411  0.83550462    -0.09160
C2373       C  0.89803634  0.31597710  0.82326892     0.29700
C2374       C  0.90670484  0.30843248  0.80658079    -0.21120
C2375       C  0.90445458  0.28879188  0.80162321    -0.09170
C2376       C  0.89392386  0.27658085  0.81420175     0.29700
F2377       F  0.89146762  0.25750131  0.81006158    -0.19700
H2378       H  0.87677449  0.27454166  0.84009642     0.18070
H2379       H  0.91478471  0.31816797  0.79722695     0.18080
F2380       F  0.90005758  0.33519349  0.82701897    -0.19680
C2381       C  0.20013829  0.28088805  0.89652863    -0.21120
C2382       C  0.20180705  0.30123061  0.89629407    -0.09160
C2383       C  0.22000963  0.30965083  0.90054682     0.29700
C2384       C  0.23615495  0.29795020  0.90456828    -0.21120
C2385       C  0.23465856  0.27763641  0.90423583    -0.09170
C2386       C  0.21641388  0.26915207  0.90041581     0.29700
F2387       F  0.21430116  0.24957586  0.90032740    -0.19700
H2388       H  0.18633670  0.27404057  0.89322658     0.18070
H2389       H  0.25004587  0.30486097  0.90739038     0.18080
F2390       F  0.22249137  0.32918944  0.90010276    -0.19680
C2391       C  0.13383568  0.38344671  0.92153367    -0.21120
C2392       C  0.12821917  0.36436244  0.91695321    -0.09160
C2393       C  0.11258298  0.35598241  0.92712475     0.29700
C2394       C  0.10292561  0.36649569  0.94156904    -0.21120
C2395       C  0.10869744  0.38549610  0.94629148    -0.09170
C2396       C  0.12424970  0.39391373  0.93604331     0.29700
F2397       F  0.13022038  0.41225384  0.93998454    -0.19700
H2398       H  0.14575343  0.39031865  0.91389092     0.18070
H2399       H  0.09109243  0.35959303  0.94932066     0.18080
F2400       F  0.10671989  0.33758148  0.92331115    -0.19680
C2401       C  0.01517430  0.29084582  0.74491178    -0.21120
C2402       C  0.02622533  0.27509671  0.75177451    -0.09160
C2403       C  0.01658968  0.25901530  0.75995418     0.29700
C2404       C  0.99621250  0.25856135  0.76060597    -0.21120
C2405       C  0.98518084  0.27407785  0.75312365    -0.09170
C2406       C  0.99489116  0.29040997  0.74555791     0.29700
F2407       F  0.98485262  0.30585715  0.73837104    -0.19700
H2408       H  0.02222996  0.30343999  0.73865748     0.18070
H2409       H  0.98906708  0.24585005  0.76649615     0.18080
F2410       F  0.02675631  0.24348209  0.76674315    -0.19680
C2411       C  0.08387801  0.21904203  0.69836244    -0.21120
C2412       C  0.09619269  0.22418683  0.71388813    -0.09160
C2413       C  0.11247456  0.21245929  0.71809088     0.29700
C2414       C  0.11643706  0.19613903  0.70674769    -0.21120
C2415       C  0.10443043  0.19134030  0.69088787    -0.09170
C2416       C  0.08794934  0.20283116  0.68691840     0.29700
F2417       F  0.07585821  0.19853545  0.67189218    -0.19700
H2418       H  0.07120890  0.22777034  0.69485116     0.18070
H2419       H  0.12935219  0.18764602  0.70995547     0.18080
F2420       F  0.12499103  0.21711681  0.73265463    -0.19680
C2421       C  0.10551331  0.31623504  0.79908900    -0.21120
C2422       C  0.10567866  0.29608653  0.79599570    -0.09160
C2423       C  0.11391767  0.28393868  0.81031507     0.29700
C2424       C  0.12238438  0.29193801  0.82701353    -0.21120
C2425       C  0.12285729  0.31215313  0.82972997    -0.09170
C2426       C  0.11402806  0.32422798  0.81569647     0.29700
F2427       F  0.11415963  0.34382332  0.81762100    -0.19700
H2428       H  0.09924465  0.32594117  0.78835015     0.18070
H2429       H  0.12908940  0.28231236  0.83755308     0.18080
F2430       F  0.11420973  0.26438892  0.80803574    -0.19680
C2431       C  0.78860250  0.68144941  0.90729861    -0.21120
C2432       C  0.80229185  0.68813921  0.89375344    -0.09160
C2433       C  0.79952545  0.70648676  0.88507558     0.29700
C2434       C  0.78312086  0.71761867  0.88954745    -0.21120
C2435       C  0.76915948  0.71073233  0.90271544    -0.09170
C2436       C  0.77222184  0.69262955  0.91184027     0.29700
F2437       F  0.75926000  0.68551553  0.92489348    -0.19700
H2438       H  0.79041200  0.66739244  0.91415778     0.18070
H2439       H  0.78111451  0.73145265  0.88230975     0.18080
F2440       F  0.81217705  0.71335351  0.87159143    -0.19680
C2441       C  0.88857554  0.63334899  0.92899926    -0.21120
C2442       C  0.87514590  0.62364792  0.91707265    -0.09160
C2443       C  0.87117087  0.60391501  0.92083681     0.29700
C2444       C  0.88039664  0.59423811  0.93624254    -0.21120
C2445       C  0.89395449  0.60388000  0.94805147    -0.09170
C2446       C  0.89800387  0.62358227  0.94425806     0.29700
F2447       F  0.91083508  0.63354471  0.95546672    -0.19700
H2448       H  0.89185342  0.64850920  0.92646628     0.18070
H2449       H  0.87702598  0.57910361  0.93884056     0.18080
F2450       F  0.85816159  0.59396182  0.90982130    -0.19680
C2451       C  0.90094273  0.77620514  0.71991191    -0.21120
C2452       C  0.90927842  0.75968017  0.71142673    -0.09160
C2453       C  0.91374358  0.76006643  0.69147079     0.29700
C2454       C  0.90951699  0.77647273  0.68025968    -0.21120
C2455       C  0.90089011  0.79287749  0.68863903    -0.09170
C2456       C  0.89682189  0.79270384  0.70867808     0.29700
F2457       F  0.88821730  0.80815640  0.71731146    -0.19700
H2458       H  0.89737658  0.77627660  0.73521671     0.18070
H2459       H  0.91270465  0.77619074  0.66486868     0.18080
F2460       F  0.92169164  0.74441144  0.68257468    -0.19680
C2461       C  0.87991480  0.69432149  0.82604538    -0.21120
C2462       C  0.88246551  0.67463256  0.83087155    -0.09160
C2463       C  0.89390707  0.66292023  0.81873911     0.29700
C2464       C  0.90203070  0.67066152  0.80180151    -0.21120
C2465       C  0.89872388  0.69012725  0.79648709    -0.09170
C2466       C  0.88781728  0.70200779  0.80896903     0.29700
F2467       F  0.88425452  0.72087216  0.80444107    -0.19700
H2468       H  0.87101176  0.70361475  0.83505854     0.18070
H2469       H  0.91047393  0.66120568  0.79252918     0.18080
F2470       F  0.89688436  0.64388936  0.82297348    -0.19680
C2471       C  0.21212149  0.72560109  0.89977474    -0.21120
C2472       C  0.22819875  0.71674008  0.90892829    -0.09160
C2473       C  0.22701282  0.69697389  0.91405904     0.29700
C2474       C  0.21042359  0.68625250  0.90953600    -0.21120
C2475       C  0.19460750  0.69485449  0.89980023    -0.09170
C2476       C  0.19541951  0.71477628  0.89522457     0.29700
F2477       F  0.18045881  0.72363105  0.88574179    -0.19700
H2478       H  0.21264599  0.74079244  0.89574587     0.18070
H2479       H  0.21020142  0.67097236  0.91325373     0.18080
F2480       F  0.24206212  0.68774264  0.92304701    -0.19680
C2481       C  0.10538864  0.63084486  0.92724486    -0.21120
C2482       C  0.12510932  0.62805150  0.92260618    -0.09160
C2483       C  0.13581116  0.61378845  0.93280293     0.29700
C2484       C  0.12693981  0.60261913  0.94723478    -0.21120
C2485       C  0.10723087  0.60532252  0.95187070    -0.09170
C2486       C  0.09646945  0.61957887  0.94169910     0.29700
F2487       F  0.07736170  0.62269290  0.94568669    -0.19700
H2488       H  0.09681623  0.64163585  0.91956325     0.18070
H2489       H  0.13559720  0.59187335  0.95487558     0.18080
F2490       F  0.15495804  0.61066053  0.92899259    -0.19680
C2491       C  0.00814704  0.72882144  0.75663170    -0.21120
C2492       C  0.01900837  0.71184369  0.75355184    -0.09160
C2493       C  0.00919800  0.69423782  0.75035267     0.29700
C2494       C  0.98890806  0.69384699  0.74945106    -0.21120
C2495       C  0.97804245  0.71093065  0.75177332    -0.09170
C2496       C  0.98779977  0.72843316  0.75570248     0.29700
F2497       F  0.97779595  0.74530308  0.75776004    -0.19700
H2498       H  0.01542337  0.74254647  0.75902621     0.18070
H2499       H  0.98169576  0.68017315  0.74662442     0.18080
F2500       F  0.01918063  0.67741674  0.74784578    -0.19680
C2501       C  0.10854811  0.77724704  0.72475089    -0.21120
C2502       C  0.09129928  0.76723085  0.72030874    -0.09160
C2503       C  0.07914127  0.77440361  0.70536977     0.29700
C2504       C  0.08448353  0.79091727  0.69480691    -0.21120
C2505       C  0.10212148  0.80045338  0.69871054    -0.09170
C2506       C  0.11400997  0.79363000  0.71400657     0.29700
F2507       F  0.13108531  0.80255583  0.71839574    -0.19700
H2508       H  0.11812240  0.77206730  0.73617843     0.18070
H2509       H  0.07511844  0.79583145  0.68308445     0.18080
F2510       F  0.06225450  0.76528373  0.70065531    -0.19680
C2511       C  0.11322012  0.66744676  0.81836233    -0.21120
C2512       C  0.11513032  0.67904994  0.83495619    -0.09160
C2513       C  0.10803275  0.69823796  0.83437623     0.29700
C2514       C  0.09974157  0.70572182  0.81724346    -0.21120
C2515       C  0.09835092  0.69418167  0.80052295    -0.09170
C2516       C  0.10504869  0.67487644  0.80132780     0.29700
F2517       F  0.10461194  0.66336367  0.78537332    -0.19700
H2518       H  0.11880857  0.65274104  0.81826939     0.18070
H2519       H  0.09460859  0.72058313  0.81698356     0.18080
F2520       F  0.10940257  0.70985776  0.85018473    -0.19680
C2521       C  0.11680818  0.33134340  0.67582573    -0.21120
C2522       C  0.13612743  0.33636910  0.68038075    -0.09160
C2523       C  0.14470595  0.32886085  0.69743785     0.29700
C2524       C  0.13421166  0.31647586  0.70951696    -0.21120
C2525       C  0.11491717  0.31147344  0.70504468    -0.09170
C2526       C  0.10621730  0.31902369  0.68807324     0.29700
F2527       F  0.08763295  0.31433079  0.68317070    -0.19700
H2528       H  0.10988732  0.33697578  0.66281201     0.18070
H2529       H  0.14115546  0.31098967  0.72257121     0.18080
F2530       F  0.16317735  0.33364292  0.70268424    -0.19680
C2531       C  0.21691736  0.30580948  0.61163891    -0.21120
C2532       C  0.20865950  0.29955020  0.59406189    -0.09160
C2533       C  0.19328188  0.31039351  0.58578341     0.29700
C2534       C  0.18590706  0.32669693  0.59535678    -0.21120
C2535       C  0.19382762  0.33260350  0.61320194    -0.09170
C2536       C  0.20960711  0.32213567  0.62115456     0.29700
F2537       F  0.21730246  0.32698852  0.63866574    -0.19700
H2538       H  0.22862702  0.29766071  0.61841127     0.18070
H2539       H  0.17378634  0.33453577  0.58895518     0.18080
F2540       F  0.18504804  0.30504122  0.56867031    -0.19680
C2541       C  0.16862585  0.20399791  0.59256507    -0.21120
C2542       C  0.18395186  0.21326569  0.60244767    -0.09160
C2543       C  0.18613155  0.21020675  0.62254484     0.29700
C2544       C  0.17340523  0.19790972  0.63241255    -0.21120
C2545       C  0.15825735  0.18840944  0.62252659    -0.09170
C2546       C  0.15584459  0.19167750  0.60247855     0.29700
F2547       F  0.14144181  0.18271576  0.59236305    -0.19700
H2548       H  0.16666617  0.20609327  0.57708370     0.18070
H2549       H  0.17559258  0.19564588  0.64783369     0.18080
F2550       F  0.20079108  0.21873815  0.63267249    -0.19680
C2551       C  0.11279275  0.30425207  0.29809570    -0.21120
C2552       C  0.10381360  0.31169829  0.28130630    -0.09160
C2553       C  0.10322948  0.33187327  0.27833898     0.29700
C2554       C  0.11224362  0.34427951  0.29165527    -0.21120
C2555       C  0.12169087  0.33676931  0.30822390    -0.09170
C2556       C  0.12151507  0.31661306  0.31153280     0.29700
F2557       F  0.13039244  0.30870596  0.32735066    -0.19700
H2558       H  0.11314502  0.28876434  0.30079939     0.18070
H2559       H  0.11227650  0.35972985  0.28873155     0.18080
F2560       F  0.09470137  0.33954347  0.26222053    -0.19680
C2561       C  0.23574729  0.25538929  0.48068855    -0.21120
C2562       C  0.22118629  0.24451985  0.47133876    -0.09160
C2563       C  0.20742098  0.23448755  0.48264748     0.29700
C2564       C  0.20833844  0.23527852  0.50285556    -0.21120
C2565       C  0.22294531  0.24602711  0.51224072    -0.09170
C2566       C  0.23667580  0.25615284  0.50096899     0.29700
F2567       F  0.25105094  0.26668075  0.50946618    -0.19700
H2568       H  0.24651687  0.26321440  0.47230019     0.18070
H2569       H  0.19757840  0.22736229  0.51117782     0.18080
F2570       F  0.19305368  0.22384999  0.47426071    -0.19680
C2571       C  0.17645277  0.31951853  0.38787702    -0.21120
C2572       C  0.18671291  0.32878083  0.37288570    -0.09160
C2573       C  0.20485793  0.32114183  0.36715888     0.29700
C2574       C  0.21215262  0.30421933  0.37586742    -0.21120
C2575       C  0.20154819  0.29459626  0.39040308    -0.09170
C2576       C  0.18373005  0.30263320  0.39657594     0.29700
F2577       F  0.17296512  0.29390344  0.41060829    -0.19700
H2578       H  0.16244855  0.32503856  0.39253088     0.18070
H2579       H  0.22588867  0.29836304  0.37085743     0.18080
F2580       F  0.21522433  0.32952053  0.35262502    -0.19680
C2581       C  0.17474440  0.18493492  0.35367870    -0.21120
C2582       C  0.15625259  0.18056539  0.36118226    -0.09160
C2583       C  0.15044949  0.18905698  0.37880092     0.29700
C2584       C  0.16301280  0.20161735  0.38864728    -0.21120
C2585       C  0.18144652  0.20605726  0.38105299    -0.09170
C2586       C  0.18724413  0.19755540  0.36346350     0.29700
F2587       F  0.20515410  0.20105011  0.35590972    -0.19700
H2588       H  0.17959845  0.17852747  0.34019681     0.18070
H2589       H  0.15826192  0.20797254  0.40219698     0.18080
F2590       F  0.13265764  0.18532552  0.38651333    -0.19680
C2591       C  0.12764100  0.43802287  0.59041406    -0.21120
C2592       C  0.11455527  0.44902494  0.60158046    -0.09160
C2593       C  0.11323720  0.44525380  0.62163574     0.29700
C2594       C  0.12449529  0.43061143  0.63016983    -0.21120
C2595       C  0.13751739  0.41957263  0.61904661    -0.09170
C2596       C  0.13910647  0.42347046  0.59904846     0.29700
F2597       F  0.15132472  0.41293397  0.58776142    -0.19700
H2598       H  0.12901429  0.44068838  0.57497186     0.18070
H2599       H  0.12307092  0.42796297  0.64561070     0.18080
F2600       F  0.10110435  0.45570296  0.63309942    -0.19680
C2601       C  0.99110576  0.50993728  0.58423512    -0.21120
C2602       C  0.98118482  0.49217649  0.58248411    -0.09160
C2603       C  0.99222355  0.47498903  0.58113728     0.29700
C2604       C  0.01265018  0.47568764  0.58127345    -0.21120
C2605       C  0.02256571  0.49348998  0.58254849    -0.09170
C2606       C  0.01153233  0.51065208  0.58417878     0.29700
F2607       F  0.02042015  0.52818174  0.58552821    -0.19700
H2608       H  0.98302963  0.52339956  0.58526606     0.18070
H2609       H  0.02072644  0.46225202  0.57994909     0.18080
F2610       F  0.98334198  0.45748625  0.57945710    -0.19680
C2611       C  0.93032467  0.50804814  0.48621198    -0.21120
C2612       C  0.91916938  0.49454426  0.47578263    -0.09160
C2613       C  0.90809022  0.48076365  0.48605087     0.29700
C2614       C  0.90842583  0.48041469  0.50636660    -0.21120
C2615       C  0.91970404  0.49382522  0.51680692    -0.09170
C2616       C  0.93068489  0.50768830  0.50652141     0.29700
F2617       F  0.94215950  0.52059924  0.51603063    -0.19700
H2618       H  0.93906728  0.51870332  0.47861908     0.18070
H2619       H  0.89972404  0.46972242  0.51394738     0.18080
F2620       F  0.89664697  0.46785560  0.47649814    -0.19680
C2621       C  0.10221819  0.49329898  0.48548901    -0.21120
C2622       C  0.08444314  0.49248597  0.47531416    -0.09160
C2623       C  0.06691948  0.49214025  0.48584230     0.29700
C2624       C  0.06722676  0.49254412  0.50609715    -0.21120
C2625       C  0.08493569  0.49358331  0.51632916    -0.09170
C2626       C  0.10250803  0.49402620  0.50583812     0.29700
F2627       F  0.11993544  0.49493394  0.51518686    -0.19700
H2628       H  0.11588360  0.49363537  0.47767199     0.18070
H2629       H  0.05349809  0.49216596  0.51379834     0.18080
F2630       F  0.04943403  0.49109021  0.47660220    -0.19680
C2631       C  0.99087666  0.47521707  0.41093338    -0.21120
C2632       C  0.98084881  0.49299638  0.40975339    -0.09160
C2633       C  0.99177500  0.51019710  0.40783426     0.29700
C2634       C  0.01218438  0.50955394  0.40746702    -0.21120
C2635       C  0.02223285  0.49182748  0.40907580    -0.09170
C2636       C  0.01131666  0.47458332  0.41061709     0.29700
F2637       F  0.02033449  0.45709599  0.41209427    -0.19700
H2638       H  0.98288860  0.46175454  0.41238659     0.18070
H2639       H  0.02015266  0.52306003  0.40633858     0.18080
F2640       F  0.98281846  0.52774328  0.40673781    -0.19680
C2641       C  0.10244470  0.43714393  0.37203273    -0.21120
C2642       C  0.11021304  0.44514052  0.38911069    -0.09160
C2643       C  0.12826673  0.43817510  0.39607420     0.29700
C2644       C  0.13830034  0.42363712  0.38600522    -0.21120
C2645       C  0.13051257  0.41566304  0.36890743    -0.09170
C2646       C  0.11237913  0.42253878  0.36206001     0.29700
F2647       F  0.10425776  0.41533332  0.34559426    -0.19700
H2648       H  0.08864249  0.44226225  0.36630238     0.18070
H2649       H  0.15217140  0.41859229  0.39162399     0.18080
F2650       F  0.13644550  0.44562339  0.41239798    -0.19680
C2651       C  0.86408778  0.31949272  0.69825370    -0.21120
C2652       C  0.87433942  0.33253921  0.68636275    -0.09160
C2653       C  0.89481918  0.33241190  0.68676876     0.29700
C2654       C  0.90476306  0.31958182  0.69907413    -0.21120
C2655       C  0.89449615  0.30662660  0.71108956    -0.09170
C2656       C  0.87401489  0.30658799  0.71045169     0.29700
F2657       F  0.86352380  0.29422172  0.72167875    -0.19700
H2658       H  0.84831205  0.31927129  0.69812675     0.18070
H2659       H  0.92054400  0.31990710  0.69930167     0.18080
F2660       F  0.90524157  0.34496757  0.67568395    -0.19680
C2661       C  0.88815517  0.42391713  0.63130106    -0.21120
C2662       C  0.87087558  0.41639986  0.62326365    -0.09160
C2663       C  0.86422114  0.42391925  0.60538398     0.29700
C2664       C  0.87463819  0.43867676  0.59592122    -0.21120
C2665       C  0.89188478  0.44622782  0.60403326    -0.09170
C2666       C  0.89855224  0.43862761  0.62186698     0.29700
F2667       F  0.91506360  0.44545028  0.63033535    -0.19700
H2668       H  0.89367899  0.41841244  0.64500180     0.18070
H2669       H  0.86914628  0.44424444  0.58223121     0.18080
F2670       F  0.84771418  0.41702160  0.59697793    -0.19680
C2671       C  0.80265676  0.31793385  0.62819350    -0.21120
C2672       C  0.81815105  0.32799392  0.61947992    -0.09160
C2673       C  0.82579886  0.32113340  0.60190617     0.29700
C2674       C  0.81815660  0.30434115  0.59340039    -0.21120
C2675       C  0.80292429  0.29401541  0.60236120    -0.09170
C2676       C  0.79520752  0.30102901  0.61987288     0.29700
F2677       F  0.78096148  0.29122219  0.62936951    -0.19700
H2678       H  0.79673624  0.32278164  0.64190994     0.18070
H2679       H  0.82435451  0.29926595  0.57989379     0.18080
F2680       F  0.84058379  0.33064509  0.59294614    -0.19680
C2681       C  0.81644494  0.19502559  0.62355067    -0.21120
C2682       C  0.82340593  0.20557240  0.60756089    -0.09160
C2683       C  0.84262006  0.20251667  0.60120813     0.29700
C2684       C  0.85471077  0.18934912  0.61102911    -0.21120
C2685       C  0.84772245  0.17883844  0.62707643    -0.09170
C2686       C  0.82837027  0.18167310  0.63314740     0.29700
F2687       F  0.82099873  0.17183540  0.64857838    -0.19700
H2688       H  0.80162929  0.19698222  0.62855612     0.18070
H2689       H  0.86956704  0.18743124  0.60612709     0.18080
F2690       F  0.84984686  0.21250173  0.58580962    -0.19680
C2691       C  0.87417625  0.30642205  0.29786644    -0.21120
C2692       C  0.88820709  0.31407824  0.28523235    -0.09160
C2693       C  0.89257706  0.33397922  0.28592525     0.29700
C2694       C  0.88276965  0.34603962  0.29887513    -0.21120
C2695       C  0.86857810  0.33844924  0.31142266    -0.09170
C2696       C  0.86453100  0.31843347  0.31099842     0.29700
F2697       F  0.85126720  0.31043202  0.32321119    -0.19700
H2698       H  0.87083436  0.29107112  0.29772009     0.18070
H2699       H  0.88608204  0.36140053  0.29886061     0.18080
F2700       F  0.90587405  0.34189340  0.27368436    -0.19680
C2701       C  0.88641073  0.42233408  0.36858176    -0.21120
C2702       C  0.86685105  0.41946275  0.37388172    -0.09160
C2703       C  0.85837438  0.43205043  0.38746258     0.29700
C2704       C  0.86936924  0.44710307  0.39561446    -0.21120
C2705       C  0.88890678  0.45007877  0.39019018    -0.09170
C2706       C  0.89730878  0.43754679  0.37648044     0.29700
F2707       F  0.91606053  0.43989310  0.37071754    -0.19700
H2708       H  0.89323627  0.41292744  0.35802295     0.18070
H2709       H  0.86252873  0.45651325  0.40615172     0.18080
F2710       F  0.83959548  0.42964310  0.39310577    -0.19680
C2711       C  0.77235109  0.26166950  0.48943817    -0.21120
C2712       C  0.78077613  0.24662798  0.47861332    -0.09160
C2713       C  0.78980053  0.23106105  0.48845315     0.29700
C2714       C  0.79051174  0.23071027  0.50865394    -0.21120
C2715       C  0.78216688  0.24572154  0.51951139    -0.09170
C2716       C  0.77301626  0.26125917  0.50975849     0.29700
F2717       F  0.76496313  0.27614876  0.51978356    -0.19700
H2718       H  0.76535389  0.27378525  0.48218338     0.18070
H2719       H  0.79749157  0.21851519  0.51581765     0.18080
F2720       F  0.79778282  0.21598549  0.47863383    -0.19680
C2721       C  0.79253446  0.32699744  0.37539506    -0.21120
C2722       C  0.81063431  0.33475323  0.38103094    -0.09160
C2723       C  0.82099605  0.32573651  0.39628203     0.29700
C2724       C  0.81375702  0.30883768  0.40500552    -0.21120
C2725       C  0.79603816  0.30066523  0.39881126    -0.09170
C2726       C  0.78527816  0.31014956  0.38414638     0.29700
F2727       F  0.76824436  0.30262855  0.37750128    -0.19700
H2728       H  0.78428643  0.33355014  0.36364383     0.18070
H2729       H  0.82227612  0.30187170  0.41631978     0.18080
F2730       F  0.83845112  0.33278399  0.40232385    -0.19680
C2731       C  0.83280747  0.20216335  0.39792182    -0.21120
C2732       C  0.81682582  0.21063571  0.38825286    -0.09160
C2733       C  0.81356192  0.20627001  0.36858326     0.29700
C2734       C  0.82610929  0.19371625  0.35884844    -0.21120
C2735       C  0.84214874  0.18533143  0.36846754    -0.09170
C2736       C  0.84538457  0.18960944  0.38816369     0.29700
F2737       F  0.86057482  0.18160959  0.39804827    -0.19700
H2738       H  0.83555578  0.20520091  0.41310781     0.18070
H2739       H  0.82334344  0.19069766  0.34366746     0.18080
F2740       F  0.79834957  0.21418544  0.35866868    -0.19680
C2741       C  0.09985307  0.67345304  0.69214184    -0.21120
C2742       C  0.10724992  0.67788251  0.71063628    -0.09160
C2743       C  0.12420624  0.66849000  0.71728921     0.29700
C2744       C  0.13375095  0.65516403  0.70548661    -0.21120
C2745       C  0.12665733  0.65098231  0.68681514    -0.09170
C2746       C  0.10952976  0.66020167  0.68021423     0.29700
F2747       F  0.10230362  0.65670823  0.66218654    -0.19700
H2748       H  0.08675113  0.68048432  0.68680805     0.18070
H2749       H  0.14682439  0.64820518  0.71095936     0.18080
F2750       F  0.13137081  0.67185587  0.73537255    -0.19680
C2751       C  0.11478496  0.56264041  0.63064127    -0.21120
C2752       C  0.13050954  0.57191006  0.62145957    -0.09160
C2753       C  0.13545223  0.56635680  0.60245124     0.29700
C2754       C  0.12490064  0.55173009  0.59300203    -0.21120
C2755       C  0.10936169  0.54227228  0.60234529    -0.09170
C2756       C  0.10436329  0.54796005  0.62129105     0.29700
F2757       F  0.08945290  0.53930829  0.63089580    -0.19700
H2758       H  0.11060237  0.56664123  0.64524079     0.18070
H2759       H  0.12911762  0.54757279  0.57845942     0.18080
F2760       F  0.15044567  0.57500194  0.59297882    -0.19680
C2761       C  0.20941794  0.67649310  0.60200279    -0.21120
C2762       C  0.19906677  0.69408731  0.60254621    -0.09160
C2763       C  0.18060880  0.69453455  0.61133239     0.29700
C2764       C  0.17262905  0.67773514  0.61923203    -0.21120
C2765       C  0.18283009  0.66008184  0.61873471    -0.09170
C2766       C  0.20135807  0.65954183  0.60999712     0.29700
F2767       F  0.21166319  0.64274538  0.60919767    -0.19700
H2768       H  0.22362143  0.67583745  0.59523086     0.18070
H2769       H  0.15851624  0.67870185  0.62616312     0.18080
F2770       F  0.17041906  0.71136925  0.61282499    -0.19680
C2771       C  0.19056568  0.79605944  0.62012376    -0.21120
C2772       C  0.18288320  0.78296735  0.60659837    -0.09160
C2773       C  0.16265578  0.78257482  0.60324408     0.29700
C2774       C  0.15032737  0.79490506  0.61359688    -0.21120
C2775       C  0.15800525  0.80800514  0.62717531    -0.09170
C2776       C  0.17831095  0.80863673  0.63019786     0.29700
F2777       F  0.18635707  0.82112452  0.64313925    -0.19700
H2778       H  0.20611135  0.79662749  0.62282051     0.18070
H2779       H  0.13476461  0.79414834  0.61104482     0.18080
F2780       F  0.15473406  0.76984430  0.59046685    -0.19680
C2781       C  0.14550125  0.65564600  0.29304619    -0.21120
C2782       C  0.13608635  0.64758604  0.30926039    -0.09160
C2783       C  0.11615335  0.65139628  0.31211253     0.29700
C2784       C  0.10596392  0.66315953  0.29895559    -0.21120
C2785       C  0.11551052  0.67143210  0.28293482    -0.09170
C2786       C  0.13535715  0.66747808  0.28000136     0.29700
F2787       F  0.14490951  0.67480108  0.26438046    -0.19700
H2788       H  0.16076859  0.65274438  0.29038955     0.18070
H2789       H  0.09068682  0.66615052  0.30153071     0.18080
F2790       F  0.10655860  0.64401117  0.32767800    -0.19680
C2791       C  0.13722038  0.56431804  0.39262271    -0.21120
C2792       C  0.13645516  0.56701610  0.37240248    -0.09160
C2793       C  0.12390620  0.55522938  0.36132432     0.29700
C2794       C  0.11248003  0.54107516  0.37031290    -0.21120
C2795       C  0.11317552  0.53835641  0.39051424    -0.09170
C2796       C  0.12565104  0.55018333  0.40165516     0.29700
F2797       F  0.12683727  0.54802058  0.42122563    -0.19700
H2798       H  0.14665958  0.57326903  0.40147392     0.18070
H2799       H  0.10312840  0.53212369  0.36136926     0.18080
F2800       F  0.12278788  0.55716715  0.34172150    -0.19680
C2801       C  0.20502607  0.74556393  0.48718798    -0.21120
C2802       C  0.22064506  0.73622014  0.47798076    -0.09160
C2803       C  0.23504204  0.72706864  0.48939659     0.29700
C2804       C  0.23398573  0.72775241  0.50965763    -0.21120
C2805       C  0.21868866  0.73766730  0.51881248    -0.09170
C2806       C  0.20402554  0.74633832  0.50738177     0.29700
F2807       F  0.18881539  0.75579152  0.51565351    -0.19700
H2808       H  0.19371127  0.75264376  0.47874436     0.18070
H2809       H  0.24545302  0.72101746  0.51817181     0.18080
F2810       F  0.25045438  0.71801823  0.48106545    -0.19680
C2811       C  0.21503212  0.67160062  0.39770955    -0.21120
C2812       C  0.20498455  0.68932679  0.39597718    -0.09160
C2813       C  0.18735665  0.68988894  0.38547987     0.29700
C2814       C  0.17989371  0.67310296  0.37709408    -0.21120
C2815       C  0.18986272  0.65537575  0.37868918    -0.09170
C2816       C  0.20754052  0.65469563  0.38912946     0.29700
F2817       F  0.21745171  0.63775377  0.39118172    -0.19700
H2818       H  0.22860631  0.67083198  0.40574144     0.18070
H2819       H  0.16647346  0.67413825  0.36882260     0.18080
F2820       F  0.17758754  0.70682919  0.38267366    -0.19680
C2821       C  0.17760270  0.79259141  0.35813623    -0.21120
C2822       C  0.16379185  0.80370097  0.36817572    -0.09160
C2823       C  0.16342769  0.80293152  0.38858862     0.29700
C2824       C  0.17651426  0.79099351  0.39865452    -0.21120
C2825       C  0.19020306  0.77972524  0.38858312    -0.09170
C2826       C  0.19073938  0.78075368  0.36818524     0.29700
F2827       F  0.20372038  0.77012255  0.35786461    -0.19700
H2828       H  0.17822036  0.79301031  0.34243219     0.18070
H2829       H  0.17578325  0.79041521  0.41435757     0.18080
F2830       F  0.15020649  0.81335211  0.39882826    -0.19680
C2831       C  0.88747303  0.65148483  0.67805982    -0.21120
C2832       C  0.86714470  0.65001424  0.67980974    -0.09160
C2833       C  0.85761188  0.66074468  0.69431582     0.29700
C2834       C  0.86827445  0.67250978  0.70687320    -0.21120
C2835       C  0.88861136  0.67378348  0.70534329    -0.09170
C2836       C  0.89817455  0.66322863  0.69072063     0.29700
F2837       F  0.91781363  0.66422185  0.68861203    -0.19700
H2838       H  0.89513842  0.64333652  0.66703639     0.18070
H2839       H  0.86056294  0.68052416  0.71795458     0.18080
F2840       F  0.83798241  0.65980107  0.69654878    -0.19680
C2841       C  0.86308471  0.56193579  0.59990353    -0.21120
C2842       C  0.86562756  0.56607053  0.61971317    -0.09160
C2843       C  0.87938863  0.55524325  0.63046850     0.29700
C2844       C  0.89043696  0.54078516  0.62152486    -0.21120
C2845       C  0.88808382  0.53674682  0.60168805    -0.09170
C2846       C  0.87423051  0.54747246  0.59091218     0.29700
F2847       F  0.87155217  0.54416611  0.57166763    -0.19700
H2848       H  0.85268058  0.57011269  0.59129255     0.18070
H2849       H  0.90083986  0.53268400  0.63020742     0.18080
F2850       F  0.88208911  0.55844818  0.64973178    -0.19680
C2851       C  0.78626554  0.67977486  0.60971822    -0.21120
C2852       C  0.79575467  0.68734684  0.59333403    -0.09160
C2853       C  0.81213238  0.67746029  0.58597974     0.29700
C2854       C  0.81925905  0.66085839  0.59537832    -0.21120
C2855       C  0.81009788  0.65363390  0.61208154    -0.09170
C2856       C  0.79330027  0.66307656  0.61901257     0.29700
F2857       F  0.78427401  0.65684525  0.63539821    -0.19700
H2858       H  0.77370418  0.68711828  0.61572086     0.18070
H2859       H  0.83219211  0.65383729  0.58977822     0.18080
F2860       F  0.82165540  0.68409797  0.57004139    -0.19680
C2861       C  0.81199821  0.78508114  0.61829459    -0.21120
C2862       C  0.81854462  0.77587398  0.60140837    -0.09160
C2863       C  0.83752800  0.77958380  0.59470287     0.29700
C2864       C  0.84973805  0.79219848  0.60491484    -0.21120
C2865       C  0.84317292  0.80141602  0.62183092    -0.09170
C2866       C  0.82408973  0.79783705  0.62836874     0.29700
F2867       F  0.81701462  0.80666569  0.64446231    -0.19700
H2868       H  0.79736252  0.78261812  0.62357900     0.18070
H2869       H  0.86437122  0.79468846  0.59961853     0.18080
F2870       F  0.84441255  0.77081265  0.57849452    -0.19680
C2871       C  0.88914383  0.64479937  0.29139679    -0.21120
C2872       C  0.87419915  0.65202937  0.30322275    -0.09160
C2873       C  0.86969479  0.67194798  0.30253171     0.29700
C2874       C  0.87974121  0.68426378  0.28997585    -0.21120
C2875       C  0.89460369  0.67705410  0.27808979    -0.09170
C2876       C  0.89931767  0.65719151  0.27891552     0.29700
F2877       F  0.91346358  0.64968001  0.26743292    -0.19700
H2878       H  0.89283125  0.62951385  0.29167688     0.18070
H2879       H  0.87609052  0.69955356  0.28978717     0.18080
F2880       F  0.85583740  0.67965204  0.31423537    -0.19680
C2881       C  0.89099529  0.56798001  0.36585715    -0.21120
C2882       C  0.87160952  0.57223456  0.37084821    -0.09160
C2883       C  0.86245387  0.56099319  0.38525184     0.29700
C2884       C  0.87260814  0.54586098  0.39446502    -0.21120
C2885       C  0.89187411  0.54139424  0.38918394    -0.09170
C2886       C  0.90098924  0.55261537  0.37475011     0.29700
F2887       F  0.91964157  0.54892095  0.36937375    -0.19700
H2888       H  0.89835907  0.57637386  0.35477024     0.18070
H2889       H  0.86527749  0.53740605  0.40552124     0.18080
F2890       F  0.84379156  0.56470835  0.39056442    -0.19680
C2891       C  0.80014262  0.74455559  0.48142172    -0.21120
C2892       C  0.78368772  0.73925926  0.47053824    -0.09160
C2893       C  0.76666258  0.73337690  0.48022376     0.29700
C2894       C  0.76614578  0.73308049  0.50050947    -0.21120
C2895       C  0.78252115  0.73871658  0.51138307    -0.09170
C2896       C  0.79964437  0.74425234  0.50164902     0.29700
F2897       F  0.81594278  0.74937850  0.51162112    -0.19700
H2898       H  0.81342799  0.74904474  0.47424999     0.18070
H2899       H  0.75278683  0.72887649  0.50770659     0.18080
F2900       F  0.75030235  0.72865796  0.47015574    -0.19680
C2901       C  0.79523287  0.67606277  0.39026684    -0.21120
C2902       C  0.80598564  0.69339199  0.38979513    -0.09160
C2903       C  0.82497306  0.69316233  0.38214174     0.29700
C2904       C  0.83295719  0.67599777  0.37508135    -0.21120
C2905       C  0.82219012  0.65870134  0.37522175    -0.09170
C2906       C  0.80324956  0.65880343  0.38304366     0.29700
F2907       F  0.79244144  0.64233219  0.38355589    -0.19700
H2908       H  0.78065108  0.67588779  0.39622007     0.18070
H2909       H  0.84737943  0.67646267  0.36874217     0.18080
F2910       F  0.83561165  0.70970927  0.38071810    -0.19680
C2911       C  0.81369988  0.79501121  0.36721664    -0.21120
C2912       C  0.82096036  0.78321251  0.38223086    -0.09160
C2913       C  0.84088711  0.78398492  0.38699188     0.29700
C2914       C  0.85335096  0.79620289  0.37664386    -0.21120
C2915       C  0.84614963  0.80790428  0.36148552    -0.09170
C2916       C  0.82611516  0.80740821  0.35701246     0.29700
F2917       F  0.81845242  0.81898014  0.34291711    -0.19700
H2918       H  0.79835793  0.79475150  0.36349476     0.18070
H2919       H  0.86870355  0.79632833  0.38035437     0.18080
F2920       F  0.84845571  0.77246108  0.40118176    -0.19680
C2921       C  0.33033872  0.68583392  0.13624408    -0.21120
C2922       C  0.34922949  0.68227989  0.12933447    -0.09160
C2923       C  0.35531356  0.69129251  0.11201336     0.29700
C2924       C  0.34258932  0.70361657  0.10187750    -0.21120
C2925       C  0.32377570  0.70726000  0.10896881    -0.09170
C2926       C  0.31772402  0.69818606  0.12622305     0.29700
F2927       F  0.29942271  0.70080880  0.13318391    -0.19700
H2928       H  0.32522178  0.67895252  0.14943220     0.18070
H2929       H  0.34749115  0.71043359  0.08856853     0.18080
F2930       F  0.37345393  0.68820965  0.10484638    -0.19680
C2931       C  0.23425506  0.58150732  0.28677323    -0.21120
C2932       C  0.22544677  0.58154595  0.26828757    -0.09160
C2933       C  0.20545527  0.58577408  0.26669783     0.29700
C2934       C  0.19451006  0.58964673  0.28319063    -0.21120
C2935       C  0.20314337  0.58963994  0.30171069    -0.09170
C2936       C  0.22318218  0.58551229  0.30343310     0.29700
F2937       F  0.23201017  0.58526654  0.32110181    -0.19700
H2938       H  0.24962181  0.57825579  0.28831545     0.18070
H2939       H  0.17922472  0.59317553  0.28133275     0.18080
F2940       F  0.19650763  0.58682628  0.24909209    -0.19680
C2941       C  0.31047008  0.59197067  0.17667930    -0.21120
C2942       C  0.30855496  0.58935529  0.19681353    -0.09160
C2943       C  0.32422965  0.59436168  0.20901538     0.29700
C2944       C  0.34118197  0.60252628  0.20116580    -0.21120
C2945       C  0.34270391  0.60598799  0.18107930    -0.09170
C2946       C  0.32724410  0.60030397  0.16885780     0.29700
F2947       F  0.32788360  0.60354287  0.14940709    -0.19700
H2948       H  0.29861681  0.58823088  0.16695916     0.18070
H2949       H  0.35280196  0.60683178  0.21089900     0.18080
F2950       F  0.32309422  0.59163751  0.22850985    -0.19680
C2951       C  0.21652303  0.62142545  0.18306136    -0.21120
C2952       C  0.21802056  0.60118963  0.18148406    -0.09160
C2953       C  0.20628023  0.59144946  0.16781974     0.29700
C2954       C  0.19347639  0.60186443  0.15590933    -0.21120
C2955       C  0.19217346  0.62212121  0.15730112    -0.09170
C2956       C  0.20374031  0.63184549  0.17109948     0.29700
F2957       F  0.20276579  0.65141206  0.17306050    -0.19700
H2958       H  0.22528944  0.62922196  0.19353811     0.18070
H2959       H  0.18478744  0.59406331  0.14535100     0.18080
F2960       F  0.20724864  0.57188725  0.16576736    -0.19680
C2961       C  0.33424329  0.28629134  0.13050193    -0.21120
C2962       C  0.34089442  0.30347019  0.12170041    -0.09160
C2963       C  0.33455449  0.30814996  0.10281984     0.29700
C2964       C  0.32180578  0.29575126  0.09299126    -0.21120
C2965       C  0.31513558  0.27861094  0.10186232    -0.09170
C2966       C  0.32152292  0.27393621  0.12070754     0.29700
F2967       F  0.31594630  0.25717436  0.12948576    -0.19700
H2968       H  0.33908157  0.28225998  0.14495194     0.18070
H2969       H  0.31704365  0.29961936  0.07847340     0.18080
F2970       F  0.34045012  0.32474619  0.09394610    -0.19680
C2971       C  0.24579592  0.48063326  0.19961019    -0.21120
C2972       C  0.25544488  0.46966603  0.21390873    -0.09160
C2973       C  0.26606443  0.47926698  0.22851040     0.29700
C2974       C  0.26666575  0.49952534  0.22887955    -0.21120
C2975       C  0.25671418  0.51047295  0.21474702    -0.09170
C2976       C  0.24636359  0.50081971  0.19997881     0.29700
F2977       F  0.23653364  0.51080628  0.18599461    -0.19700
H2978       H  0.23754515  0.47358196  0.18820570     0.18070
H2979       H  0.27474324  0.50664048  0.24034763     0.18080
F2980       F  0.27572481  0.46915873  0.24251287    -0.19680
C2981       C  0.20340207  0.38490127  0.26064557    -0.21120
C2982       C  0.22023153  0.39609795  0.26313704    -0.09160
C2983       C  0.22511977  0.40282669  0.28178507     0.29700
C2984       C  0.21299751  0.39854288  0.29763934    -0.21120
C2985       C  0.19614811  0.38722259  0.29505022    -0.09170
C2986       C  0.19157422  0.38034033  0.27635034     0.29700
F2987       F  0.17543023  0.36943332  0.27305638    -0.19700
H2988       H  0.19936471  0.37959974  0.24639196     0.18070
H2989       H  0.21681781  0.40394044  0.31189525     0.18080
F2990       F  0.24112722  0.41404757  0.28453152    -0.19680
C2991       C  0.30440735  0.38731758  0.17211263    -0.21120
C2992       C  0.30232149  0.38865923  0.19233629    -0.09160
C2993       C  0.31729578  0.38161336  0.20443609     0.29700
C2994       C  0.33389434  0.37304457  0.19634436    -0.21120
C2995       C  0.33574570  0.37123082  0.17609331    -0.09170
C2996       C  0.32082821  0.37856114  0.16402299     0.29700
F2997       F  0.32167475  0.37663611  0.14442825    -0.19700
H2998       H  0.29297180  0.39249656  0.16251442     0.18070
H2999       H  0.34512691  0.36749224  0.20594538     0.18080
F3000       F  0.31593865  0.38305884  0.22403579    -0.19680
C3001       C  0.18214054  0.37890245  0.15848865    -0.21120
C3002       C  0.18880884  0.36217799  0.14901716    -0.09160
C3003       C  0.20803465  0.35574350  0.15235761     0.29700
C3004       C  0.22017281  0.36571225  0.16513634    -0.21120
C3005       C  0.21356304  0.38242722  0.17456041    -0.09170
C3006       C  0.19446375  0.38908777  0.17106603     0.29700
F3007       F  0.18751158  0.40504947  0.18023174    -0.19700
H3008       H  0.16739449  0.38406280  0.15618778     0.18070
H3009       H  0.23483036  0.36038356  0.16760191     0.18080
F3010       F  0.21505874  0.33956273  0.14362624    -0.19680
C3011       C  0.42684984  0.61564729  0.11032602    -0.21120
C3012       C  0.42690426  0.61434978  0.13071183    -0.09160
C3013       C  0.44231479  0.60446030  0.14001173     0.29700
C3014       C  0.45738695  0.59626708  0.12905008    -0.21120
C3015       C  0.45750011  0.59797509  0.10868857    -0.09170
C3016       C  0.44196849  0.60764836  0.09941329     0.29700
F3017       F  0.44127065  0.60931293  0.07977028    -0.19700
H3018       H  0.41519226  0.62314088  0.10275918     0.18070
H3019       H  0.46915728  0.58885779  0.13653002     0.18080
F3020       F  0.44297782  0.60286254  0.15965580    -0.19680
C3021       C  0.48411882  0.57893332  0.98543267    -0.21120
C3022       C  0.50170107  0.57982642  0.97505809    -0.09160
C3023       C  0.51932364  0.58126374  0.98553857     0.29700
C3024       C  0.51927236  0.58143865  0.00588707    -0.21120
C3025       C  0.50172500  0.58009499  0.01626670    -0.09170
C3026       C  0.48407373  0.57902456  0.00578601     0.29700
F3027       F  0.46673736  0.57781363  0.01514387    -0.19700
H3028       H  0.47035095  0.57783718  0.97778456     0.18070
H3029       H  0.53305728  0.58225491  0.01353455     0.18080
F3030       F  0.53668311  0.58220103  0.97619361    -0.19680
C3031       C  0.52070876  0.48379221  0.91551929    -0.21120
C3032       C  0.50336887  0.47342719  0.91238448    -0.09160
C3033       C  0.48595163  0.48377374  0.90911135     0.29700
C3034       C  0.48591787  0.50404557  0.90935270    -0.21120
C3035       C  0.50319839  0.51441445  0.91275484    -0.09170
C3036       C  0.52067958  0.50408497  0.91571643     0.29700
F3037       F  0.53769628  0.51351825  0.91915287    -0.19700
H3038       H  0.53429700  0.47618113  0.91806830     0.18070
H3039       H  0.47230253  0.51164173  0.90688554     0.18080
F3040       F  0.46892607  0.47436875  0.90562985    -0.19680
C3041       C  0.48415259  0.48409895  0.08061119    -0.21120
C3042       C  0.50164038  0.47360450  0.07913116    -0.09160
C3043       C  0.51937940  0.48379922  0.07821346     0.29700
C3044       C  0.51947635  0.50408271  0.07833255    -0.21120
C3045       C  0.50196635  0.51458744  0.07953990    -0.09170
C3046       C  0.48426110  0.50437826  0.08092002     0.29700
F3047       F  0.46700057  0.51392327  0.08225430    -0.19700
H3048       H  0.47032504  0.47659521  0.08145874     0.18070
H3049       H  0.53329684  0.51157961  0.07732287     0.18080
F3050       F  0.53662436  0.47424100  0.07678390    -0.19680
C3051       C  0.51922932  0.40873421  0.98529982    -0.21120
C3052       C  0.50179443  0.40809486  0.97453359    -0.09160
C3053       C  0.48400238  0.40705723  0.98465685     0.29700
C3054       C  0.48377552  0.40703300  0.00503609    -0.21120
C3055       C  0.50121555  0.40801509  0.01578574    -0.09170
C3056       C  0.51900833  0.40869802  0.00564245     0.29700
F3057       F  0.53625225  0.40973039  0.01531502    -0.19700
H3058       H  0.53313240  0.40955496  0.97795439     0.18070
H3059       H  0.46987519  0.40650998  0.01241662     0.18080
F3060       F  0.46677167  0.40638987  0.97493020    -0.19680
C3061       C  0.44797161  0.36674917  0.09686455    -0.21120
C3062       C  0.45500898  0.38458512  0.10372808    -0.09160
C3063       C  0.44697485  0.39235244  0.12082494     0.29700
C3064       C  0.43219376  0.38248765  0.13069438    -0.21120
C3065       C  0.42505254  0.36471029  0.12379535    -0.09170
C3066       C  0.43309586  0.35691082  0.10670707     0.29700
F3067       F  0.42652395  0.33987054  0.09937158    -0.19700
H3068       H  0.45389533  0.36046038  0.08375823     0.18070
H3069       H  0.42632138  0.38881478  0.14380915     0.18080
F3070       F  0.45356851  0.40935555  0.12824088    -0.19680
C3071       C  0.33257070  0.67800309  0.88577983    -0.21120
C3072       C  0.34347707  0.68539676  0.87023310    -0.09160
C3073       C  0.34152786  0.70507296  0.86503784     0.29700
C3074       C  0.32845848  0.71695952  0.87488416    -0.21120
C3075       C  0.31735532  0.70954095  0.89023102    -0.09170
C3076       C  0.31956084  0.68997410  0.89574564     0.29700
F3077       F  0.30869769  0.68227512  0.91029758    -0.19700
H3078       H  0.33380661  0.66287103  0.88993001     0.18070
H3079       H  0.32719566  0.73205975  0.87066782     0.18080
F3080       F  0.35248569  0.71293744  0.85064525    -0.19680
C3081       C  0.42915679  0.60217374  0.86276418    -0.21120
C3082       C  0.42553369  0.62191718  0.86617263    -0.09160
C3083       C  0.43715865  0.63178327  0.87984602     0.29700
C3084       C  0.45203726  0.62202603  0.88983771    -0.21120
C3085       C  0.45564713  0.60226901  0.88647655    -0.09170
C3086       C  0.44399543  0.59238622  0.87282572     0.29700
F3087       F  0.44683514  0.57324816  0.86920022    -0.19700
H3088       H  0.42036294  0.59422924  0.85241535     0.18070
H3089       H  0.46082013  0.63000599  0.90017205     0.18080
F3090       F  0.43433586  0.65092865  0.88346218    -0.19680
C3091       C  0.22702263  0.59977799  0.71299900    -0.21120
C3092       C  0.22030748  0.58604786  0.72652093    -0.09160
C3093       C  0.20285087  0.57603521  0.72259287     0.29700
C3094       C  0.19208753  0.58021686  0.70582806    -0.21120
C3095       C  0.19840577  0.59445946  0.69266208    -0.09170
C3096       C  0.21621140  0.60399686  0.69622611     0.29700
F3097       F  0.22286084  0.61792109  0.68393582    -0.19700
H3098       H  0.24041991  0.60764153  0.71564424     0.18070
H3099       H  0.17841631  0.57273190  0.70350289     0.18080
F3100       F  0.19577154  0.56262715  0.73521592    -0.19680
C3101       C  0.31753239  0.60233359  0.78847232    -0.21120
C3102       C  0.30052761  0.60120089  0.79973140    -0.09160
C3103       C  0.30083178  0.60850687  0.81878070     0.29700
C3104       C  0.31778138  0.61667368  0.82636870    -0.21120
C3105       C  0.33478417  0.61793930  0.81517169    -0.09170
C3106       C  0.33457717  0.61061669  0.79610805     0.29700
F3107       F  0.35076934  0.61143639  0.78487663    -0.19700
H3108       H  0.31764242  0.59675112  0.77379456     0.18070
H3109       H  0.31741181  0.62248799  0.84095833     0.18080
F3110       F  0.28456122  0.60835860  0.82994852    -0.19680
C3111       C  0.20512529  0.59861382  0.83203214    -0.21120
C3112       C  0.20982170  0.60647405  0.81378576    -0.09160
C3113       C  0.20192913  0.62455061  0.80831603     0.29700
C3114       C  0.19002520  0.63475431  0.82114244    -0.21120
C3115       C  0.18556931  0.62699370  0.83945183    -0.09170
C3116       C  0.19308653  0.60875477  0.84478697     0.29700
F3117       F  0.18946946  0.60109581  0.86261028    -0.19700
H3118       H  0.21111941  0.58478331  0.83661520     0.18070
H3119       H  0.18418830  0.64869732  0.81672372     0.18080
F3120       F  0.20560500  0.63234567  0.79057097    -0.19680
C3121       C  0.32797104  0.31279048  0.86575539    -0.21120
C3122       C  0.34822521  0.30979060  0.86622939    -0.09160
C3123       C  0.35578636  0.29377555  0.87659949     0.29700
C3124       C  0.34320913  0.28095753  0.88606872    -0.21120
C3125       C  0.32299366  0.28364553  0.88494402    -0.09170
C3126       C  0.31542270  0.29976642  0.87493857     0.29700
F3127       F  0.29591789  0.30309486  0.87434177    -0.19700
H3128       H  0.32179925  0.32501332  0.85795021     0.18070
H3129       H  0.34921954  0.26860102  0.89380998     0.18080
F3130       F  0.37523693  0.29015281  0.87717835    -0.19680
C3131       C  0.42973786  0.36746315  0.88139041    -0.21120
C3132       C  0.42809465  0.37100300  0.86131848    -0.09160
C3133       C  0.44188324  0.38307197  0.85227371     0.29700
C3134       C  0.45689264  0.39148180  0.86319989    -0.21120
C3135       C  0.45865898  0.38772649  0.88322257    -0.09170
C3136       C  0.44493453  0.37557850  0.89223566     0.29700
F3137       F  0.44596319  0.37180063  0.91157765    -0.19700
H3138       H  0.41934164  0.35818373  0.88870264     0.18070
H3139       H  0.46729237  0.40079249  0.85593387     0.18080
F3140       F  0.44076572  0.38693882  0.83295697    -0.19680
C3141       C  0.25074708  0.48668722  0.79361427    -0.21120
C3142       C  0.25811504  0.47749002  0.77701852    -0.09160
C3143       C  0.26534523  0.48891742  0.76168152     0.29700
C3144       C  0.26480269  0.50915785  0.76287888    -0.21120
C3145       C  0.25688579  0.51831133  0.77924441    -0.09170
C3146       C  0.25005853  0.50687817  0.79474140     0.29700
F3147       F  0.24254348  0.51515255  0.81093512    -0.19700
H3148       H  0.24515744  0.47823819  0.80565484     0.18070
H3149       H  0.27006613  0.51766987  0.75074079     0.18080
F3150       F  0.27250311  0.48061683  0.74534775    -0.19680
C3151       C  0.23292781  0.40514530  0.70464936    -0.21120
C3152       C  0.22357714  0.41017813  0.72205831    -0.09160
C3153       C  0.20309257  0.41142929  0.72227625     0.29700
C3154       C  0.19227847  0.40700867  0.70570246    -0.21120
C3155       C  0.20150768  0.40118512  0.68852356    -0.09170
C3156       C  0.22201845  0.40067381  0.68798158     0.29700
F3157       F  0.23151454  0.39499953  0.67170686    -0.19700
H3158       H  0.24866210  0.40413945  0.70408270     0.18070
H3159       H  0.17652781  0.40751217  0.70656350     0.18080
F3160       F  0.19334404  0.41626761  0.73868511    -0.19680
C3161       C  0.31498144  0.37845674  0.78022350    -0.21120
C3162       C  0.30841392  0.39568681  0.78882220    -0.09160
C3163       C  0.31933956  0.40376244  0.80414734     0.29700
C3164       C  0.33599286  0.39427378  0.81118521    -0.21120
C3165       C  0.34206467  0.37658407  0.80314269    -0.09170
C3166       C  0.33157745  0.36893760  0.78729325     0.29700
F3167       F  0.33681239  0.35183807  0.77909213    -0.19700
H3168       H  0.30685696  0.37192794  0.76843191     0.18070
H3169       H  0.34379086  0.40048770  0.82335952     0.18080
F3170       F  0.31368869  0.42054496  0.81271892    -0.19680
C3171       C  0.20410905  0.39680325  0.82110097    -0.21120
C3172       C  0.21877909  0.38699650  0.81086745    -0.09160
C3173       C  0.22055485  0.36676956  0.81303091     0.29700
C3174       C  0.20782716  0.35663846  0.82515684    -0.21120
C3175       C  0.19310356  0.36642320  0.83532714    -0.09170
C3176       C  0.19135012  0.38666275  0.83320699     0.29700
F3177       F  0.17738064  0.39670675  0.84282101    -0.19700
H3178       H  0.20241457  0.41236635  0.81965060     0.18070
H3179       H  0.20955890  0.34108439  0.82662481     0.18080
F3180       F  0.23462666  0.35674118  0.80355279    -0.19680
C3181       C  0.66035527  0.70634747  0.12535928    -0.21120
C3182       C  0.65730530  0.68719471  0.11912412    -0.09160
C3183       C  0.66758808  0.68032225  0.10290138     0.29700
C3184       C  0.68068961  0.69246247  0.09322629    -0.21120
C3185       C  0.68399174  0.71145619  0.09975293    -0.09170
C3186       C  0.67361937  0.71837092  0.11584162     0.29700
F3187       F  0.67610328  0.73681296  0.12223754    -0.19700
H3188       H  0.65263617  0.71198791  0.13781461     0.18070
H3189       H  0.68863150  0.68684620  0.08088556     0.18080
F3190       F  0.66544801  0.66176914  0.09670964    -0.19680
C3191       C  0.57770903  0.60189726  0.12513753    -0.21120
C3192       C  0.57838483  0.62225764  0.12536013    -0.09160
C3193       C  0.56393736  0.63277731  0.11523953     0.29700
C3194       C  0.54920911  0.62306502  0.10507423    -0.21120
C3195       C  0.54856113  0.60269751  0.10474967    -0.09170
C3196       C  0.56303650  0.59216671  0.11487158     0.29700
F3197       F  0.56319301  0.57247172  0.11471068    -0.19700
H3198       H  0.58874269  0.59348289  0.13267635     0.18070
H3199       H  0.53819128  0.63152444  0.09757482     0.18080
F3200       F  0.56379382  0.65247158  0.11544711    -0.19680
C3201       C  0.77669559  0.59934343  0.27727412    -0.21120
C3202       C  0.78437720  0.58739005  0.26271471    -0.09160
C3203       C  0.80317983  0.57949769  0.26523498     0.29700
C3204       C  0.81410804  0.58381406  0.28179347    -0.21120
C3205       C  0.80661287  0.59606082  0.29617938    -0.09170
C3206       C  0.78767215  0.60367612  0.29387367     0.29700
F3207       F  0.77993641  0.61575995  0.30732645    -0.19700
H3208       H  0.76229700  0.60560349  0.27567596     0.18070
H3209       H  0.82866573  0.57785958  0.28314298     0.18080
F3210       F  0.81129040  0.56795641  0.25152060    -0.19680
C3211       C  0.66829362  0.60983831  0.19425754    -0.21120
C3212       C  0.66794949  0.61574437  0.17467738    -0.09160
C3213       C  0.68451229  0.61240274  0.16314129     0.29700
C3214       C  0.70102482  0.60360668  0.17110697    -0.21120
C3215       C  0.70161800  0.59819838  0.19076727    -0.09170
C3216       C  0.68502352  0.60121640  0.20230858     0.29700
F3217       F  0.68496414  0.59590443  0.22130920    -0.19700
H3218       H  0.65579209  0.61233977  0.20346925     0.18070
H3219       H  0.71364831  0.60155193  0.16193000     0.18080
F3220       F  0.68508129  0.61814668  0.14426501    -0.19680
C3221       C  0.80839802  0.59823082  0.16862352    -0.21120
C3222       C  0.79216709  0.60760439  0.17670360    -0.09160
C3223       C  0.78898389  0.62735080  0.17257048     0.29700
C3224       C  0.80179142  0.63743786  0.16052276    -0.21120
C3225       C  0.81800487  0.62809153  0.15237962    -0.09170
C3226       C  0.82128041  0.60835878  0.15661147     0.29700
F3227       F  0.83680323  0.59879004  0.14908850    -0.19700
H3228       H  0.81116143  0.58304265  0.17165663     0.18070
H3229       H  0.79885443  0.65256903  0.15738479     0.18080
F3230       F  0.77324599  0.63684091  0.17975189    -0.19680
C3231       C  0.66066753  0.28579848  0.10219328    -0.21120
C3232       C  0.67948230  0.28193425  0.10930588    -0.09160
C3233       C  0.68588937  0.29111045  0.12634774     0.29700
C3234       C  0.67356309  0.30376285  0.13618953    -0.21120
C3235       C  0.65460046  0.30739715  0.12933569    -0.09170
C3236       C  0.64821690  0.29832426  0.11217604     0.29700
F3237       F  0.63001368  0.30150200  0.10503660    -0.19700
H3238       H  0.65550984  0.27891070  0.08902804     0.18070
H3239       H  0.67886761  0.31064953  0.14928453     0.18080
F3240       F  0.70421965  0.28821343  0.13328810    -0.19680
C3241       C  0.55748482  0.37751038  0.14026908    -0.21120
C3242       C  0.57584446  0.37435507  0.13185928    -0.09160
C3243       C  0.57863356  0.37949742  0.11222121     0.29700
C3244       C  0.56322836  0.38707773  0.10120630    -0.21120
C3245       C  0.54487452  0.39004838  0.10956510    -0.09170
C3246       C  0.54214092  0.38537652  0.12928069     0.29700
F3247       F  0.52446043  0.38773120  0.13774263    -0.19700
H3248       H  0.55488554  0.37355075  0.15526915     0.18070
H3249       H  0.56570136  0.39078248  0.08611567     0.18080
F3250       F  0.59617524  0.37702410  0.10351353    -0.19680
C3251       C  0.75162776  0.48640586  0.19726961    -0.21120
C3252       C  0.74618037  0.47702121  0.21454419    -0.09160
C3253       C  0.74064433  0.48823160  0.23062946     0.29700
C3254       C  0.74099109  0.50848606  0.22945435    -0.21120
C3255       C  0.74689268  0.51784840  0.21229494    -0.09170
C3256       C  0.75196283  0.50660081  0.19608513     0.29700
F3257       F  0.75741217  0.51505281  0.17911292    -0.19700
H3258       H  0.75579772  0.47808190  0.18463378     0.18070
H3259       H  0.73711289  0.51684794  0.24215815     0.18080
F3260       F  0.73554559  0.47969381  0.24766515    -0.19680
C3261       C  0.77071595  0.40446331  0.28547656    -0.21120
C3262       C  0.78003629  0.40921270  0.26793440    -0.09160
C3263       C  0.80054523  0.40963609  0.26745870     0.29700
C3264       C  0.81138732  0.40476471  0.28394410    -0.21120
C3265       C  0.80214863  0.39944180  0.30131692    -0.09170
C3266       C  0.78164671  0.39966720  0.30208327     0.29700
F3267       F  0.77215349  0.39447979  0.31855924    -0.19700
H3268       H  0.75496218  0.40405275  0.28623182     0.18070
H3269       H  0.82713484  0.40472593  0.28294266     0.18080
F3270       F  0.81025389  0.41408905  0.25088775    -0.19680
C3271       C  0.68497840  0.40381018  0.18504009    -0.21120
C3272       C  0.69450453  0.39609446  0.20147932    -0.09160
C3273       C  0.68615206  0.38014239  0.21113914     0.29700
C3274       C  0.66902717  0.37174452  0.20404114    -0.21120
C3275       C  0.66002589  0.37887742  0.18707523    -0.09170
C3276       C  0.66794945  0.39526701  0.17782328     0.29700
F3277       F  0.65955278  0.40276198  0.16155667    -0.19700
H3278       H  0.69103222  0.41614759  0.17738613     0.18070
H3279       H  0.66330506  0.35905142  0.21136680     0.18080
F3280       F  0.69489026  0.37212480  0.22697541    -0.19680
C3281       C  0.78792414  0.39379796  0.16051193    -0.21120
C3282       C  0.78403147  0.38642215  0.17913640    -0.09160
C3283       C  0.79280478  0.36889986  0.18501900     0.29700
C3284       C  0.80510473  0.35892603  0.17238995    -0.21120
C3285       C  0.80890309  0.36620728  0.15370261    -0.09170
C3286       C  0.80018495  0.38378968  0.14784268     0.29700
F3287       F  0.80333802  0.39127265  0.12986093    -0.19700
H3288       H  0.78134464  0.40727778  0.15568359     0.18070
H3289       H  0.81173625  0.34550803  0.17729956     0.18080
F3290       F  0.78987072  0.36158776  0.20310794    -0.19680
C3291       C  0.65280411  0.68452745  0.87981601    -0.21120
C3292       C  0.65579656  0.68158835  0.85987846    -0.09160
C3293       C  0.67154473  0.69088086  0.85071286     0.29700
C3294       C  0.68393440  0.70292992  0.86133588    -0.21120
C3295       C  0.68093987  0.70589807  0.88126156    -0.09170
C3296       C  0.66522047  0.69656397  0.89045625     0.29700
F3297       F  0.66172186  0.69912054  0.90966860    -0.19700
H3298       H  0.64079534  0.67751830  0.88720514     0.18070
H3299       H  0.69597654  0.70986143  0.85394897     0.18080
F3300       F  0.67518527  0.68816478  0.83155229    -0.19680
C3301       C  0.57424898  0.62004926  0.87970724    -0.21120
C3302       C  0.57607061  0.61592459  0.85981446    -0.09160
C3303       C  0.56278197  0.60298481  0.85119886     0.29700
C3304       C  0.54798945  0.59447840  0.86235474    -0.21120
C3305       C  0.54608519  0.59883075  0.88220480    -0.09170
C3306       C  0.55945239  0.61167807  0.89078997     0.29700
F3307       F  0.55838699  0.61607990  0.90995620    -0.19700
H3308       H  0.58427730  0.62990528  0.88676458     0.18070
H3309       H  0.53786853  0.58464428  0.85539492     0.18080
F3310       F  0.56394196  0.59865139  0.83202909    -0.19680
C3311       C  0.76964043  0.58388471  0.70467607    -0.21120
C3312       C  0.77885588  0.57855515  0.72216829    -0.09160
C3313       C  0.79930942  0.57692732  0.72263321     0.29700
C3314       C  0.81025518  0.58102350  0.70613210    -0.21120
C3315       C  0.80118554  0.58682273  0.68875492    -0.09170
C3316       C  0.78068764  0.58790275  0.68802265     0.29700
F3317       F  0.77136744  0.59358738  0.67153039    -0.19700
H3318       H  0.75392771  0.58516633  0.70396394     0.18070
H3319       H  0.82599155  0.58020494  0.70716944     0.18080
F3320       F  0.80891499  0.57220574  0.73927801    -0.19680
C3321       C  0.67940367  0.59111884  0.78332025    -0.21120
C3322       C  0.69644416  0.58999301  0.79463722    -0.09160
C3323       C  0.69608051  0.59688213  0.81384050     0.29700
C3324       C  0.67915381  0.60508517  0.82136663    -0.21120
C3325       C  0.66221562  0.60672874  0.80997336    -0.09170
C3326       C  0.66235204  0.59933032  0.79092469     0.29700
F3327       F  0.64623569  0.60047071  0.77948366    -0.19700
H3328       H  0.67934025  0.58579168  0.76854737     0.18070
H3329       H  0.67958372  0.61086763  0.83597064     0.18080
F3330       F  0.71238013  0.59663210  0.82509743    -0.19680
C3331       C  0.79241359  0.59215357  0.82624907    -0.21120
C3332       C  0.78435660  0.60142184  0.80987187    -0.09160
C3333       C  0.78874947  0.62104740  0.80637363     0.29700
C3334       C  0.80099259  0.63110989  0.81908716    -0.21120
C3335       C  0.80905758  0.62180780  0.83545021    -0.09170
C3336       C  0.80463470  0.60218470  0.83893732     0.29700
F3337       F  0.81206157  0.59262652  0.85458513    -0.19700
H3338       H  0.78925705  0.57705072  0.82928569     0.18070
H3339       H  0.80420156  0.64619710  0.81608127     0.18080
F3340       F  0.78134195  0.63051765  0.79067111    -0.19680
C3341       C  0.65585262  0.29319363  0.88829927    -0.21120
C3342       C  0.66259358  0.30328753  0.87188341    -0.09160
C3343       C  0.68224336  0.30131897  0.86640529     0.29700
C3344       C  0.69464807  0.28901644  0.87680365    -0.21120
C3345       C  0.68784849  0.27868779  0.89299522    -0.09170
C3346       C  0.66838274  0.28106065  0.89887765     0.29700
F3347       F  0.66125930  0.27113659  0.91436633    -0.19700
H3348       H  0.64080999  0.29452021  0.89283095     0.18070
H3349       H  0.70961990  0.28750466  0.87211893     0.18080
F3350       F  0.68946543  0.31097876  0.85079568    -0.19680
C3351       C  0.56622552  0.37775382  0.85553196    -0.21120
C3352       C  0.58086449  0.36807707  0.86612216    -0.09160
C3353       C  0.57968764  0.36770181  0.88656598     0.29700
C3354       C  0.56408404  0.37660010  0.89607343    -0.21120
C3355       C  0.54955821  0.38638506  0.88550116    -0.09170
C3356       C  0.55079695  0.38697555  0.86509473     0.29700
F3357       F  0.53682688  0.39600602  0.85434464    -0.19700
H3358       H  0.56671015  0.37817638  0.83981975     0.18070
H3359       H  0.56346890  0.37600880  0.91177932     0.18080
F3360       F  0.59341948  0.35845574  0.89743679    -0.19680
C3361       C  0.76302243  0.47985840  0.78654949    -0.21120
C3362       C  0.74785218  0.46905146  0.77826598    -0.09160
C3363       C  0.73224145  0.47877473  0.76917644     0.29700
C3364       C  0.73199008  0.49907046  0.76837053    -0.21120
C3365       C  0.74730016  0.50984620  0.77656209    -0.09170
C3366       C  0.76287043  0.50001630  0.78564266     0.29700
F3367       F  0.77823289  0.50979422  0.79331079    -0.19700
H3368       H  0.77530021  0.47267323  0.79342502     0.18070
H3369       H  0.71985202  0.50634185  0.76136601     0.18080
F3370       F  0.71717047  0.46873269  0.76130620    -0.19680
C3371       C  0.77677771  0.38958862  0.71289217    -0.21120
C3372       C  0.78366589  0.40238117  0.72716947    -0.09160
C3373       C  0.80171506  0.41171043  0.72429313     0.29700
C3374       C  0.81292408  0.40762113  0.70789900    -0.21120
C3375       C  0.80628030  0.39443670  0.69392272    -0.09170
C3376       C  0.78794678  0.38562344  0.69640157     0.29700
F3377       F  0.78137284  0.37221532  0.68356493    -0.19700
H3378       H  0.76301613  0.38215364  0.71478720     0.18070
H3379       H  0.82701301  0.41449883  0.70630843     0.18080
F3380       F  0.80880301  0.42448689  0.73749769    -0.19680
C3381       C  0.69056328  0.37531794  0.78731623    -0.21120
C3382       C  0.70015423  0.38991325  0.79778976    -0.09160
C3383       C  0.69202901  0.39627862  0.81542512     0.29700
C3384       C  0.67514179  0.38755166  0.82273903    -0.21120
C3385       C  0.66598047  0.37244214  0.81259963    -0.09170
C3386       C  0.67369922  0.36661767  0.79459651     0.29700
F3387       F  0.66562628  0.35178087  0.78446593    -0.19700
H3388       H  0.69650513  0.37011695  0.77374236     0.18070
H3389       H  0.66951775  0.39228322  0.83661503     0.18080
F3390       F  0.70059570  0.41062250  0.82585392    -0.19680
C3391       C  0.80684410  0.38881812  0.82398313    -0.21120
C3392       C  0.79083417  0.37931380  0.81552776    -0.09160
C3393       C  0.78805272  0.35944891  0.81918715     0.29700
C3394       C  0.80114543  0.34930825  0.83099649    -0.21120
C3395       C  0.81722045  0.35874284  0.83940515    -0.09170
C3396       C  0.81999699  0.37864646  0.83579394     0.29700
F3397       F  0.83538047  0.38827990  0.84358625    -0.19700
H3398       H  0.80929719  0.40411342  0.82128650     0.18070
H3399       H  0.79852816  0.33405729  0.83375384     0.18080
F3400       F  0.77246141  0.34988406  0.81172468    -0.19680
C3401       C  0.69790184  0.11158410  0.34824999    -0.21120
C3402       C  0.68908364  0.12883799  0.34173296    -0.09160
C3403       C  0.69278574  0.13544037  0.32274152     0.29700
C3404       C  0.70519924  0.12503866  0.31064999    -0.21120
C3405       C  0.71401958  0.10779948  0.31712448    -0.09170
C3406       C  0.71023986  0.10107894  0.33605946     0.29700
F3407       F  0.71854692  0.08449697  0.34287376    -0.19700
H3408       H  0.69522201  0.10618759  0.36278886     0.18070
H3409       H  0.70775736  0.13042132  0.29609017     0.18080
F3410       F  0.68432434  0.15186024  0.31571382    -0.19680
C3411       C  0.70462016  0.19143881  0.41470907    -0.21120
C3412       C  0.69342611  0.19654821  0.39835109    -0.09160
C3413       C  0.69862822  0.21317097  0.38758646     0.29700
C3414       C  0.71502447  0.22403529  0.39281925    -0.21120
C3415       C  0.72661603  0.21851579  0.40875977    -0.09170
C3416       C  0.72103880  0.20228227  0.41991560     0.29700
F3417       F  0.73161016  0.19663419  0.43566403    -0.19700
H3418       H  0.70091777  0.17875657  0.42325632     0.18070
H3419       H  0.71903071  0.23640661  0.38396040     0.18080
F3420       F  0.68844348  0.21847632  0.37147338    -0.19680
C3421       C  0.57696111  0.27262782  0.20340443    -0.21120
C3422       C  0.58773798  0.26828003  0.22030089    -0.09160
C3423       C  0.60266277  0.28101186  0.22611167     0.29700
C3424       C  0.60688934  0.29748963  0.21495120    -0.21120
C3425       C  0.59663244  0.30131127  0.19765184    -0.09170
C3426       C  0.58144887  0.28887301  0.19207942     0.29700
F3427       F  0.57105784  0.29231414  0.17559939    -0.19700
H3428       H  0.56536250  0.26312898  0.19860990     0.18070
H3429       H  0.61879800  0.30680392  0.21937824     0.18080
F3430       F  0.61359595  0.27726010  0.24216797    -0.19680
C3431       C  0.59796642  0.17503281  0.30392743    -0.21120
C3432       C  0.59564506  0.19516372  0.30161198    -0.09160
C3433       C  0.60080529  0.20742985  0.31709658     0.29700
C3434       C  0.60904154  0.19964427  0.33410826    -0.21120
C3435       C  0.61231052  0.17956312  0.33594107    -0.09170
C3436       C  0.60622012  0.16727924  0.32081280     0.29700
F3437       F  0.60899427  0.14779484  0.32188692    -0.19700
H3438       H  0.59398897  0.16521207  0.29233278     0.18070
H3439       H  0.61365544  0.20943165  0.34549372     0.18080
F3440       F  0.59855300  0.22694595  0.31558744    -0.19680
C3441       C  0.63858729  0.16889916  0.19582651    -0.21120
C3442       C  0.62855812  0.15426489  0.18579103    -0.09160
C3443       C  0.60826095  0.15268354  0.18791878     0.29700
C3444       C  0.59830848  0.16535852  0.20018190    -0.21120
C3445       C  0.60836647  0.17989504  0.21038161    -0.09170
C3446       C  0.62861794  0.18170369  0.20791906     0.29700
F3447       F  0.63886718  0.19565865  0.21732758    -0.19700
H3448       H  0.65420729  0.17043652  0.19431488     0.18070
H3449       H  0.58270411  0.16367805  0.20181082     0.18080
F3450       F  0.59810813  0.13855652  0.17865785    -0.19680
C3451       C  0.31069113  0.10052546  0.33549695    -0.21120
C3452       C  0.30966363  0.12081594  0.33644345    -0.09160
C3453       C  0.29587278  0.13074497  0.32493466     0.29700
C3454       C  0.28352790  0.12049156  0.31251725    -0.21120
C3455       C  0.28473446  0.10020850  0.31131487    -0.09170
C3456       C  0.29843760  0.09026127  0.32297865     0.29700
F3457       F  0.30022454  0.07066098  0.32216182    -0.19700
H3458       H  0.32122703  0.09261871  0.34421360     0.18070
H3459       H  0.27304025  0.12845163  0.30381276     0.18080
F3460       F  0.29407921  0.15033785  0.32588084    -0.19680
C3461       C  0.30458406  0.20536142  0.39709046    -0.21120
C3462       C  0.30213753  0.18543615  0.39347133    -0.09160
C3463       C  0.28329045  0.17744805  0.39445666     0.29700
C3464       C  0.26734236  0.18915229  0.39886797    -0.21120
C3465       C  0.26967650  0.20909440  0.40218092    -0.09170
C3466       C  0.28849167  0.21714314  0.40140372     0.29700
F3467       F  0.29135846  0.23629714  0.40488937    -0.19700
H3468       H  0.31891664  0.21186381  0.39635592     0.18070
H3469       H  0.25299722  0.18261779  0.39921627     0.18080
F3470       F  0.28005693  0.15843838  0.39048225    -0.19680
C3471       C  0.48773985  0.20167875  0.23337882    -0.21120
C3472       C  0.47690645  0.20971770  0.24858355    -0.09160
C3473       C  0.48674731  0.21840682  0.26426511     0.29700
C3474       C  0.50710393  0.21926848  0.26444537    -0.21120
C3475       C  0.51790000  0.21148799  0.24904838    -0.09170
C3476       C  0.50801327  0.20258525  0.23351334     0.29700
F3477       F  0.51784031  0.19516993  0.21815258    -0.19700
H3478       H  0.48049697  0.19505265  0.22108120     0.18070
H3479       H  0.51441236  0.22610194  0.27658314     0.18080
F3480       F  0.47676287  0.22610608  0.27937560    -0.19680
C3481       C  0.41988454  0.27787437  0.21275422    -0.21120
C3482       C  0.40530183  0.26384107  0.21584021    -0.09160
C3483       C  0.38711683  0.26608311  0.20664891     0.29700
C3484       C  0.38387945  0.28166896  0.19408745    -0.21120
C3485       C  0.39845578  0.29552675  0.19085855    -0.09170
C3486       C  0.41639178  0.29383248  0.20052327     0.29700
F3487       F  0.43073845  0.30701050  0.19741593    -0.19700
H3488       H  0.43403963  0.27631781  0.21958539     0.18070
H3489       H  0.36995527  0.28286931  0.18669875     0.18080
F3490       F  0.37281092  0.25268232  0.20894688    -0.19680
C3491       C  0.38986128  0.20429283  0.31013659    -0.21120
C3492       C  0.39958752  0.19200200  0.29712670    -0.09160
C3493       C  0.40152161  0.17218481  0.30184726     0.29700
C3494       C  0.39312913  0.16476937  0.31873831    -0.21120
C3495       C  0.38265501  0.17685010  0.33132327    -0.09170
C3496       C  0.38145271  0.19682953  0.32710922     0.29700
F3497       F  0.37131235  0.20899061  0.33879132    -0.19700
H3498       H  0.38819327  0.21958249  0.30686110     0.18070
H3499       H  0.39428119  0.14935007  0.32162084     0.18080
F3500       F  0.41088445  0.15972924  0.28982411    -0.19680
C3501       C  0.37092425  0.16738199  0.21070438    -0.21120
C3502       C  0.38939516  0.17424455  0.20535285    -0.09160
C3503       C  0.39751355  0.16817760  0.18764413     0.29700
C3504       C  0.38712748  0.15557429  0.17552391    -0.21120
C3505       C  0.36855806  0.14888441  0.18087073    -0.09170
C3506       C  0.36061225  0.15480651  0.19868710     0.29700
F3507       F  0.34296761  0.14826956  0.20470272    -0.19700
H3508       H  0.36443272  0.17166795  0.22434208     0.18070
H3509       H  0.39353836  0.15118425  0.16186838     0.18080
F3510       F  0.41526886  0.17462777  0.18188548    -0.19680
C3511       C  0.61507172  0.09654675  0.43491800    -0.21120
C3512       C  0.60426439  0.10585838  0.44941575    -0.09160
C3513       C  0.60185195  0.12616850  0.44837389     0.29700
C3514       C  0.61042634  0.13685306  0.43334462    -0.21120
C3515       C  0.62145934  0.12756989  0.41899540    -0.09170
C3516       C  0.62356462  0.10721861  0.41983764     0.29700
F3517       F  0.63420597  0.09759247  0.40636638    -0.19700
H3518       H  0.61715527  0.08097419  0.43535940     0.18070
H3519       H  0.60856561  0.15245523  0.43304526     0.18080
F3520       F  0.59146413  0.13582508  0.46201905    -0.19680
C3521       C  0.60330446  0.98354968  0.49317347    -0.21120
C3522       C  0.58564578  0.97316651  0.49358683    -0.09160
C3523       C  0.56807485  0.98370185  0.49485868     0.29700
C3524       C  0.56821931  0.00395939  0.49582568    -0.21120
C3525       C  0.58577848  0.01441128  0.49532208    -0.09170
C3526       C  0.60340846  0.00398194  0.49388106     0.29700
F3527       F  0.62072832  0.01345438  0.49339514    -0.19700
H3528       H  0.61703167  0.97585572  0.49221791     0.18070
H3529       H  0.55441328  0.01151381  0.49683941     0.18080
F3530       F  0.55061459  0.97446723  0.49542686    -0.19680
C3531       C  0.49159682  0.90489828  0.47761153    -0.21120
C3532       C  0.48172208  0.90554756  0.49542325    -0.09160
C3533       C  0.49267838  0.90562729  0.51277112     0.29700
C3534       C  0.51304931  0.90562723  0.51218467    -0.21120
C3535       C  0.52292728  0.90558441  0.49436339    -0.09170
C3536       C  0.51197919  0.90491513  0.47702731     0.29700
F3537       F  0.52089381  0.90462885  0.45946642    -0.19700
H3538       H  0.48353708  0.90474411  0.46406657     0.18070
H3539       H  0.52109609  0.90610819  0.52572900     0.18080
F3540       F  0.48378525  0.90615531  0.53033825    -0.19680
C3541       C  0.49095153  0.08217731  0.47690560    -0.21120
C3542       C  0.48046468  0.08198660  0.49438953    -0.09160
C3543       C  0.49082950  0.08175733  0.51208713     0.29700
C3544       C  0.51119568  0.08107914  0.51217462    -0.21120
C3545       C  0.52167215  0.08063665  0.49469681    -0.09170
C3546       C  0.51134506  0.08155191  0.47700139     0.29700
F3547       F  0.52086612  0.08146019  0.45976006    -0.19700
H3548       H  0.48335173  0.08237671  0.46310327     0.18070
H3549       H  0.51876114  0.08049801  0.52599499     0.18080
F3550       F  0.48134665  0.08151529  0.52935415    -0.19680
C3551       C  0.43316836  0.00278719  0.50177059    -0.21120
C3552       C  0.41628923  0.01294460  0.49613080    -0.09160
C3553       C  0.39952944  0.00223994  0.49111457     0.29700
C3554       C  0.39987966  0.98180602  0.49166377    -0.21120
C3555       C  0.41686812  0.97173996  0.49732906    -0.09170
C3556       C  0.43352286  0.98255276  0.50237753     0.29700
F3557       F  0.45043140  0.97362588  0.50754236    -0.19700
H3558       H  0.44633720  0.01053654  0.50562360     0.18070
H3559       H  0.38687837  0.97386332  0.48766034     0.18080
F3560       F  0.38288602  0.01143857  0.48562201    -0.19680
C3561       C  0.37098473  0.12553471  0.43591598    -0.21120
C3562       C  0.37640816  0.12221969  0.41657489    -0.09160
C3563       C  0.39054110  0.10791256  0.41266909     0.29700
C3564       C  0.39908230  0.09728958  0.42789628    -0.21120
C3565       C  0.39337647  0.10040394  0.44719730    -0.09170
C3566       C  0.37921970  0.11467396  0.45106867     0.29700
F3567       F  0.37364906  0.11850559  0.46956059    -0.19700
H3568       H  0.36011572  0.13639860  0.43932126     0.18070
H3569       H  0.41004400  0.08649235  0.42458067     0.18080
F3570       F  0.39624954  0.10428540  0.39418334    -0.19680
C3571       C  0.70897684  0.85735902  0.32582139    -0.21120
C3572       C  0.69438159  0.86729515  0.33603061    -0.09160
C3573       C  0.69283791  0.88754587  0.33396491     0.29700
C3574       C  0.70571462  0.89755968  0.32188283    -0.21120
C3575       C  0.72023766  0.88758730  0.31158745    -0.09170
C3576       C  0.72176921  0.86734694  0.31367461     0.29700
F3577       F  0.73560474  0.85715307  0.30403113    -0.19700
H3578       H  0.71049190  0.84177678  0.32718953     0.18070
H3579       H  0.70417979  0.91314273  0.32044256     0.18080
F3580       F  0.67894928  0.89770274  0.34357672    -0.19680
C3581       C  0.70086073  0.77939511  0.38772464    -0.21120
C3582       C  0.69996319  0.79861038  0.39446776    -0.09160
C3583       C  0.71559428  0.80589313  0.40552235     0.29700
C3584       C  0.73191029  0.79435249  0.40926766    -0.21120
C3585       C  0.73316507  0.77540020  0.40194670    -0.09170
C3586       C  0.71734248  0.76787683  0.39133607     0.29700
F3587       F  0.71787992  0.74955876  0.38419767    -0.19700
H3588       H  0.68908679  0.77348906  0.37907855     0.18070
H3589       H  0.74385130  0.80051146  0.41750940     0.18080
F3590       F  0.71544904  0.82437540  0.41227020    -0.19680
C3591       C  0.63979637  0.87745850  0.42879080    -0.21120
C3592       C  0.62913637  0.86487205  0.41674654    -0.09160
C3593       C  0.60892358  0.86312798  0.41960275     0.29700
C3594       C  0.59969393  0.87372479  0.43426692    -0.21120
C3595       C  0.61038864  0.88622118  0.44640410    -0.09170
C3596       C  0.63060345  0.88796086  0.44351095     0.29700
F3597       F  0.64160169  0.89954551  0.45507004    -0.19700
H3598       H  0.65537490  0.87906231  0.42693365     0.18070
H3599       H  0.58413014  0.87205115  0.43618870     0.18080
F3600       F  0.59800881  0.85140780  0.40810236    -0.19680
C3601       C  0.58230056  0.71300345  0.20744566    -0.21120
C3602       C  0.59734413  0.72358817  0.21638638    -0.09160
C3603       C  0.61666763  0.71708665  0.21460122     0.29700
C3604       C  0.62082743  0.70048334  0.20383905    -0.21120
C3605       C  0.60589035  0.69018928  0.19442204    -0.09170
C3606       C  0.58649460  0.69642045  0.19653741     0.29700
F3607       F  0.57165441  0.68670406  0.18785615    -0.19700
H3608       H  0.56730299  0.71776273  0.20864465     0.18070
H3609       H  0.63591719  0.69620985  0.20212204     0.18080
F3610       F  0.63168200  0.72740531  0.22222813    -0.19680
C3611       C  0.61920096  0.79435693  0.32753937    -0.21120
C3612       C  0.62320954  0.81434202  0.32851010    -0.09160
C3613       C  0.61808771  0.82624210  0.31262206     0.29700
C3614       C  0.60966837  0.81820559  0.29601728    -0.21120
C3615       C  0.60627366  0.79815721  0.29474371    -0.09170
C3616       C  0.61083740  0.78628653  0.31081540     0.29700
F3617       F  0.60754347  0.76688025  0.31029832    -0.19700
H3618       H  0.62303871  0.78486654  0.33952298     0.18070
H3619       H  0.60628035  0.82769433  0.28389630     0.18080
F3620       F  0.62177627  0.84558945  0.31277703    -0.19680
C3621       C  0.63412299  0.80758367  0.19863839    -0.21120
C3622       C  0.61405603  0.81032672  0.20139501    -0.09160
C3623       C  0.60437542  0.82496668  0.19075966     0.29700
C3624       C  0.61481929  0.83691080  0.17802362    -0.21120
C3625       C  0.63502014  0.83450993  0.17578022    -0.09170
C3626       C  0.64453526  0.81951410  0.18601851     0.29700
F3627       F  0.66399525  0.81650226  0.18412284    -0.19700
H3628       H  0.64189976  0.79635674  0.20651976     0.18070
H3629       H  0.60719875  0.84839997  0.17035528     0.18080
F3630       F  0.58497475  0.82809480  0.19298867    -0.19680
C3631       C  0.31081404  0.85172334  0.32255436    -0.21120
C3632       C  0.31650369  0.85993630  0.34032477    -0.09160
C3633       C  0.30989892  0.87864104  0.34508795     0.29700
C3634       C  0.29781268  0.88883574  0.33222120    -0.21120
C3635       C  0.29200610  0.88051861  0.31452498    -0.09170
C3636       C  0.29865351  0.86183986  0.30977632     0.29700
F3637       F  0.29359159  0.85337008  0.29272473    -0.19700
H3638       H  0.31575542  0.83737288  0.31851381     0.18070
H3639       H  0.29284368  0.90320056  0.33620131     0.18080
F3640       F  0.31514738  0.88713543  0.36207061    -0.19680
C3641       C  0.30057301  0.79519830  0.41427060    -0.21120
C3642       C  0.31002300  0.79184510  0.39656078    -0.09160
C3643       C  0.30332266  0.77679902  0.38449407     0.29700
C3644       C  0.28728375  0.76559109  0.38995958    -0.21120
C3645       C  0.27755323  0.76918631  0.40746942    -0.09170
C3646       C  0.28453177  0.78394681  0.41976538     0.29700
F3647       F  0.27575742  0.78769092  0.43698646    -0.19700
H3648       H  0.30550761  0.80666745  0.42380200     0.18070
H3649       H  0.28209318  0.75447514  0.38015160     0.18080
F3650       F  0.31164516  0.77349303  0.36695873    -0.19680
C3651       C  0.38652662  0.84884358  0.43770064    -0.21120
C3652       C  0.38402072  0.85737467  0.41930715    -0.09160
C3653       C  0.39016616  0.87668552  0.41645890     0.29700
C3654       C  0.39816959  0.88727785  0.43184322    -0.21120
C3655       C  0.40024630  0.87889888  0.45035628    -0.09170
C3656       C  0.39451226  0.85944183  0.45309393     0.29700
F3657       F  0.39618457  0.85071782  0.47073476    -0.19700
H3658       H  0.38186874  0.83405995  0.44032150     0.18070
H3659       H  0.40256739  0.90214994  0.42929190     0.18080
F3660       F  0.38827047  0.88547537  0.39887306    -0.19680
C3661       C  0.49471941  0.78924454  0.23969695    -0.21120
C3662       C  0.48551645  0.77464193  0.25056839    -0.09160
C3663       C  0.49698486  0.76134799  0.26115063     0.29700
C3664       C  0.51732285  0.76247401  0.26040957    -0.21120
C3665       C  0.52648486  0.77681220  0.24911655    -0.09170
C3666       C  0.51496494  0.79037361  0.23894651     0.29700
F3667       F  0.52318064  0.80461368  0.22803903    -0.19700
H3668       H  0.48622901  0.79973867  0.23152489     0.18070
H3669       H  0.52589261  0.75186830  0.26834172     0.18080
F3670       F  0.48863249  0.74699923  0.27179593    -0.19680
C3671       C  0.42709567  0.71199470  0.20697153    -0.21120
C3672       C  0.41386379  0.71940799  0.22061675    -0.09160
C3673       C  0.39598078  0.70983910  0.22336918     0.29700
C3674       C  0.39136094  0.69345124  0.21238957    -0.21120
C3675       C  0.40433230  0.68639474  0.19833392    -0.09170
C3676       C  0.42240904  0.69566392  0.19589594     0.29700
F3677       F  0.43546213  0.68912554  0.18267396    -0.19700
H3678       H  0.44098198  0.71905157  0.20461847     0.18070
H3679       H  0.37726989  0.68669147  0.21441223     0.18080
F3680       F  0.38258038  0.71674053  0.23605238    -0.19680
C3681       C  0.39861148  0.77777190  0.31526841    -0.21120
C3682       C  0.40853446  0.79026021  0.30253259    -0.09160
C3683       C  0.41086867  0.80987029  0.30771044     0.29700
C3684       C  0.40245594  0.81698880  0.32468611    -0.21120
C3685       C  0.39163496  0.80476415  0.33689755    -0.09170
C3686       C  0.39017803  0.78491959  0.33230159     0.29700
F3687       F  0.37949168  0.77268569  0.34349236    -0.19700
H3688       H  0.39661220  0.76263069  0.31161403     0.18070
H3689       H  0.40380680  0.83229731  0.32790717     0.18080
F3690       F  0.42073949  0.82238289  0.29608492    -0.19680
C3691       C  0.36583155  0.81748883  0.19374266    -0.21120
C3692       C  0.37518323  0.83394126  0.18610467    -0.09160
C3693       C  0.39486872  0.83727001  0.19074880     0.29700
C3694       C  0.40487061  0.82439164  0.20294928    -0.21120
C3695       C  0.39541817  0.80808886  0.21080609    -0.09170
C3696       C  0.37578396  0.80469115  0.20601970     0.29700
F3697       F  0.36616289  0.78901128  0.21312580    -0.19700
H3698       H  0.35069584  0.81458553  0.19035421     0.18070
H3699       H  0.41999906  0.82729227  0.20639201     0.18080
F3700       F  0.40448462  0.85290145  0.18352917    -0.19680
C3701       C  0.71156249  0.12723414  0.65882300    -0.21120
C3702       C  0.69289445  0.12000808  0.65464049    -0.09160
C3703       C  0.68720129  0.10204351  0.66253177     0.29700
C3704       C  0.69998803  0.09167467  0.67456683    -0.21120
C3705       C  0.71856023  0.09906761  0.67894274    -0.09170
C3706       C  0.72432365  0.11688084  0.67080515     0.29700
F3707       F  0.74236955  0.12421375  0.67419976    -0.19700
H3708       H  0.71637286  0.14089476  0.65269340     0.18070
H3709       H  0.69523437  0.07799987  0.68072815     0.18080
F3710       F  0.66920569  0.09467113  0.65896247    -0.19680
C3711       C  0.69906875  0.20587292  0.59096934    -0.21120
C3712       C  0.70164608  0.18620143  0.59590432    -0.09160
C3713       C  0.72068040  0.17862026  0.59690709     0.29700
C3714       C  0.73667644  0.19040957  0.59296481    -0.21120
C3715       C  0.73420964  0.21007110  0.58815544    -0.09170
C3716       C  0.71522352  0.21775654  0.58707866     0.29700
F3717       F  0.71226367  0.23660533  0.58209507    -0.19700
H3718       H  0.68457617  0.21206595  0.59026450     0.18070
H3719       H  0.75113901  0.18417816  0.59413202     0.18080
F3720       F  0.72399320  0.16000045  0.60256116    -0.19680
C3721       C  0.62144557  0.09268020  0.55573871    -0.21120
C3722       C  0.60899545  0.10264952  0.54291341    -0.09160
C3723       C  0.60640420  0.12280424  0.54532804     0.29700
C3724       C  0.61604185  0.13264665  0.56028265    -0.21120
C3725       C  0.62854013  0.12270195  0.57307052    -0.09170
C3726       C  0.63109757  0.10253564  0.57070110     0.29700
F3727       F  0.64273900  0.09223687  0.58296308    -0.19700
H3728       H  0.62366228  0.07719852  0.55423657     0.18070
H3729       H  0.61388462  0.14814264  0.56171313     0.18080
F3730       F  0.59487968  0.13315505  0.53299888    -0.19680
C3731       C  0.60985370  0.27431375  0.77337608    -0.21120
C3732       C  0.59573012  0.26092324  0.77951484    -0.09160
C3733       C  0.58584421  0.26430925  0.79710176     0.29700
C3734       C  0.59053462  0.28039767  0.80851809    -0.21120
C3735       C  0.60488200  0.29357145  0.80251919    -0.09170
C3736       C  0.61438477  0.29051198  0.78470224     0.29700
F3737       F  0.62873626  0.30263444  0.77865463    -0.19700
H3738       H  0.61773032  0.27203302  0.75997438     0.18070
H3739       H  0.58302932  0.28248310  0.82216482     0.18080
F3740       F  0.57186388  0.25194120  0.80349622    -0.19680
C3741       C  0.61332082  0.20263508  0.68120210    -0.21120
C3742       C  0.60735623  0.19003645  0.69612647    -0.09160
C3743       C  0.60934966  0.16987517  0.69344595     0.29700
C3744       C  0.61744298  0.16259780  0.67639698    -0.21120
C3745       C  0.62385175  0.17514789  0.66164999    -0.09170
C3746       C  0.62148878  0.19530349  0.66408727     0.29700
F3747       F  0.62737746  0.20795407  0.65014628    -0.19700
H3748       H  0.61187084  0.21818291  0.68286997     0.18070
H3749       H  0.61923474  0.14704660  0.67501695     0.18080
F3750       F  0.60410354  0.15710237  0.70754777    -0.19680
C3751       C  0.60822753  0.15428614  0.78889590    -0.21120
C3752       C  0.61562350  0.17297569  0.78542091    -0.09160
C3753       C  0.63341861  0.17840472  0.79394737     0.29700
C3754       C  0.64375585  0.16522337  0.80544107    -0.21120
C3755       C  0.63656565  0.14642054  0.80870099    -0.09170
C3756       C  0.61860625  0.14105007  0.80040844     0.29700
F3757       F  0.61116331  0.12301885  0.80321323    -0.19700
H3758       H  0.59454538  0.14980722  0.78243574     0.18070
H3759       H  0.65739081  0.16981625  0.81189794     0.18080
F3760       F  0.64072451  0.19653765  0.79144309    -0.19680
C3761       C  0.31609966  0.10644456  0.64970473    -0.21120
C3762       C  0.31705889  0.12675933  0.65062030    -0.09160
C3763       C  0.30563367  0.13661409  0.66435113     0.29700
C3764       C  0.29352486  0.12627177  0.67689374    -0.21120
C3765       C  0.29257714  0.10595190  0.67605375    -0.09170
C3766       C  0.30404615  0.09606875  0.66234383     0.29700
F3767       F  0.30363507  0.07642267  0.66107985    -0.19700
H3768       H  0.32480527  0.09855773  0.63927159     0.18070
H3769       H  0.28477566  0.13423280  0.68722363     0.18080
F3770       F  0.30583446  0.15627630  0.66545203    -0.19680
C3771       C  0.28878530  0.18431126  0.59625378    -0.21120
C3772       C  0.30760040  0.19121983  0.59235707    -0.09160
C3773       C  0.30978555  0.20978503  0.58404466     0.29700
C3774       C  0.29329579  0.22114094  0.57976443    -0.21120
C3775       C  0.27448361  0.21412196  0.58371803    -0.09170
C3776       C  0.27242650  0.19560235  0.59212364     0.29700
F3777       F  0.25460555  0.18855614  0.59694512    -0.19700
H3778       H  0.28669927  0.17025049  0.60300563     0.18070
H3779       H  0.29521423  0.23533522  0.57325883     0.18080
F3780       F  0.32775312  0.21685801  0.57989228    -0.19680
C3781       C  0.39234227  0.11112401  0.57388187    -0.21120
C3782       C  0.38181348  0.12812553  0.56944414    -0.09160
C3783       C  0.38006404  0.13393463  0.54988901     0.29700
C3784       C  0.38868736  0.12293553  0.53519669    -0.21120
C3785       C  0.39886504  0.10578319  0.53963855    -0.09170
C3786       C  0.40074420  0.09999570  0.55913187     0.29700
F3787       F  0.41102499  0.08382486  0.56394930    -0.19700
H3788       H  0.39397677  0.10635400  0.58879789     0.18070
H3789       H  0.38696803  0.12756287  0.52023618     0.18080
F3790       F  0.36956989  0.14990556  0.54485864    -0.19680
C3791       C  0.49661399  0.22861529  0.73305142    -0.21120
C3792       C  0.48563422  0.21300710  0.74027341    -0.09160
C3793       C  0.49537003  0.19652740  0.74760105     0.29700
C3794       C  0.51565066  0.19598645  0.74817137    -0.21120
C3795       C  0.52664546  0.21172716  0.74136482    -0.09170
C3796       C  0.51698661  0.22801141  0.73354567     0.29700
F3797       F  0.52714574  0.24359509  0.72700746    -0.19700
H3798       H  0.48944017  0.24143196  0.72734523     0.18070
H3799       H  0.52276743  0.18324985  0.75414954     0.18080
F3800       F  0.48537104  0.18098656  0.75450270    -0.19680
C3801       C  0.41512728  0.28455936  0.76565072    -0.21120
C3802       C  0.41258250  0.26574210  0.77319997    -0.09160
C3803       C  0.40548939  0.26350754  0.79220197     0.29700
C3804       C  0.40118598  0.27967280  0.80340587    -0.21120
C3805       C  0.40374944  0.29852382  0.79605789    -0.09170
C3806       C  0.41081920  0.30090039  0.77701924     0.29700
F3807       F  0.41347650  0.31888301  0.76938540    -0.19700
H3808       H  0.42061761  0.28659757  0.75106545     0.18070
H3809       H  0.39555713  0.27733145  0.81790314     0.18080
F3810       F  0.40222060  0.24563873  0.79990967    -0.19680
C3811       C  0.39756224  0.20962279  0.67532450    -0.21120
C3812       C  0.40558046  0.19696795  0.68926792    -0.09160
C3813       C  0.40562786  0.17689978  0.68558594     0.29700
C3814       C  0.39738319  0.16967469  0.66855597    -0.21120
C3815       C  0.38883452  0.18219804  0.65482127    -0.09170
C3816       C  0.38932264  0.20234802  0.65816657     0.29700
F3817       F  0.38132796  0.21497297  0.64521440    -0.19700
H3818       H  0.39744236  0.22512361  0.67782972     0.18070
H3819       H  0.39704274  0.15410480  0.66649494     0.18080
F3820       F  0.41271092  0.16408643  0.69889326    -0.19680
C3821       C  0.37685147  0.17178437  0.77331461    -0.21120
C3822       C  0.39614266  0.17691460  0.77775358    -0.09160
C3823       C  0.40521888  0.16869650  0.79424511     0.29700
C3824       C  0.39504772  0.15567291  0.80604652    -0.21120
C3825       C  0.37565611  0.15087749  0.80177148    -0.09170
C3826       C  0.36665685  0.15890166  0.78520638     0.29700
F3827       F  0.34807771  0.15411279  0.78036251    -0.19700
H3828       H  0.36962843  0.17775792  0.76063037     0.18070
H3829       H  0.40214768  0.14976267  0.81884430     0.18080
F3830       F  0.42371948  0.17357734  0.79928620    -0.19680
C3831       C  0.69907368  0.84956323  0.66456890    -0.21120
C3832       C  0.68833673  0.85967708  0.65036881    -0.09160
C3833       C  0.69076559  0.87985871  0.64855176     0.29700
C3834       C  0.70376120  0.88963286  0.66075098    -0.21120
C3835       C  0.71461133  0.87947711  0.67486667    -0.09170
C3836       C  0.71213630  0.85929290  0.67666921     0.29700
F3837       F  0.72223578  0.84890126  0.69014945    -0.19700
H3838       H  0.69751438  0.83400979  0.66620629     0.18070
H3839       H  0.70531533  0.90518997  0.65914698     0.18080
F3840       F  0.68050545  0.89019034  0.63514392    -0.19680
C3841       C  0.69468188  0.77635813  0.58459153    -0.21120
C3842       C  0.69677304  0.79646636  0.58733185    -0.09160
C3843       C  0.71528173  0.80488551  0.58481558     0.29700
C3844       C  0.73133804  0.79335191  0.58024414    -0.21120
C3845       C  0.72945143  0.77316743  0.57825693    -0.09170
C3846       C  0.71086715  0.76475904  0.58014767     0.29700
F3847       F  0.70836011  0.74534990  0.57804638    -0.19700
H3848       H  0.68062988  0.76950078  0.58651559     0.18070
H3849       H  0.74545125  0.80022888  0.57886997     0.18080
F3850       F  0.71811613  0.82418984  0.58746218    -0.19680
C3851       C  0.61383658  0.84913056  0.55477032    -0.21120
C3852       C  0.62180781  0.85860816  0.57097332    -0.09160
C3853       C  0.62070371  0.87902524  0.57180923     0.29700
C3854       C  0.61216184  0.88961471  0.55660239    -0.21120
C3855       C  0.60452211  0.88017634  0.54023235    -0.09170
C3856       C  0.60524428  0.85973397  0.53956725     0.29700
F3857       F  0.59790514  0.84993093  0.52412971    -0.19700
H3858       H  0.61446349  0.83346746  0.55373484     0.18070
H3859       H  0.61181284  0.90529149  0.55752402     0.18080
F3860       F  0.62830856  0.88888838  0.58708106    -0.19680
C3861       C  0.57613854  0.71382993  0.78572201    -0.21120
C3862       C  0.58713613  0.71878340  0.76924936    -0.09160
C3863       C  0.60258216  0.70661366  0.76367031     0.29700
C3864       C  0.60731451  0.69025950  0.77483649    -0.21120
C3865       C  0.59686078  0.68580528  0.79180053    -0.09170
C3866       C  0.58090748  0.69752118  0.79691523     0.29700
F3867       F  0.57022455  0.69356671  0.81300191    -0.19700
H3868       H  0.56411890  0.72291554  0.79028091     0.18070
H3869       H  0.61973639  0.68153901  0.77063771     0.18080
F3870       F  0.61381376  0.71105769  0.74809166    -0.19680
C3871       C  0.62079025  0.78125451  0.68498551    -0.21120
C3872       C  0.60174918  0.78696169  0.68966550    -0.09160
C3873       C  0.59159421  0.79939625  0.67681993     0.29700
C3874       C  0.60071912  0.80653957  0.66008286    -0.21120
C3875       C  0.61992856  0.80114571  0.65569092    -0.09170
C3876       C  0.62979692  0.78818253  0.66818187     0.29700
F3877       F  0.64858377  0.78303232  0.66479432    -0.19700
H3878       H  0.62895420  0.77178827  0.69461663     0.18070
H3879       H  0.59288012  0.81652736  0.65071596     0.18080
F3880       F  0.57310201  0.80519008  0.68070265    -0.19680
C3881       C  0.61421055  0.84335973  0.79163540    -0.21120
C3882       C  0.62576750  0.83567258  0.80670529    -0.09160
C3883       C  0.62691128  0.81543090  0.80910906     0.29700
C3884       C  0.61715663  0.80318564  0.79628548    -0.21120
C3885       C  0.60600701  0.81082584  0.78091536    -0.09170
C3886       C  0.60437516  0.83107267  0.77881859     0.29700
F3887       F  0.59373924  0.83901608  0.76413684    -0.19700
H3888       H  0.61313654  0.85889993  0.78948552     0.18070
H3889       H  0.61843448  0.78765221  0.79834820     0.18080
F3890       F  0.63758402  0.80739735  0.82372045    -0.19680
C3891       C  0.29849623  0.85576085  0.66837105    -0.21120
C3892       C  0.31068544  0.86595382  0.65555759    -0.09160
C3893       C  0.31046368  0.88634937  0.65567618     0.29700
C3894       C  0.29810974  0.89626288  0.66828663    -0.21120
C3895       C  0.28581834  0.88607597  0.68102219    -0.09170
C3896       C  0.28620318  0.86567904  0.68104813     0.29700
F3897       F  0.27471992  0.85527571  0.69325014    -0.19700
H3898       H  0.29847565  0.84005290  0.66860303     0.18070
H3899       H  0.29810256  0.91197634  0.66799076     0.18080
F3900       F  0.32191130  0.89675193  0.64343144    -0.19680
C3901       C  0.30314530  0.77915428  0.60090650    -0.21120
C3902       C  0.30353143  0.79872009  0.59503424    -0.09160
C3903       C  0.28763426  0.80626230  0.58446003     0.29700
C3904       C  0.27155426  0.79458522  0.58032172    -0.21120
C3905       C  0.27081315  0.77525026  0.58681396    -0.09170
C3906       C  0.28689892  0.76751072  0.59694586     0.29700
F3907       F  0.28685123  0.74883250  0.60327089    -0.19700
H3908       H  0.31514685  0.77302660  0.60914396     0.18070
H3909       H  0.25937417  0.80091580  0.57250679     0.18080
F3910       F  0.28729886  0.82508573  0.57857265    -0.19680
C3911       C  0.36530946  0.87977773  0.56373324    -0.21120
C3912       C  0.37470860  0.86427872  0.57329830    -0.09160
C3913       C  0.39386731  0.85947442  0.56793019     0.29700
C3914       C  0.40325771  0.86988693  0.55320512    -0.21120
C3915       C  0.39378497  0.88525157  0.54348942    -0.09170
C3916       C  0.37467614  0.89014823  0.54895740     0.29700
F3917       F  0.36491972  0.90479362  0.53993682    -0.19700
H3918       H  0.35057559  0.88382203  0.56759846     0.18070
H3919       H  0.41796364  0.86577762  0.54929167     0.18080
F3920       F  0.40360193  0.84479274  0.57691655    -0.19680
C3921       C  0.48877221  0.79087065  0.75213850    -0.21120
C3922       C  0.47790656  0.77633810  0.74287823    -0.09160
C3923       C  0.48773457  0.76135919  0.73311981     0.29700
C3924       C  0.50808504  0.76093439  0.73286416    -0.21120
C3925       C  0.51893377  0.77531887  0.74239729    -0.09170
C3926       C  0.50907749  0.79039376  0.75198041     0.29700
F3927       F  0.51898287  0.80465930  0.76129447    -0.19700
H3928       H  0.48154299  0.80254864  0.75976165     0.18070
H3929       H  0.51535611  0.74918702  0.72539802     0.18080
F3930       F  0.47775866  0.74703813  0.72397422    -0.19680
C3931       C  0.40173626  0.72877753  0.79778341    -0.21120
C3932       C  0.40588332  0.72663444  0.77798703    -0.10360
C3933       C  0.40654885  0.70788381  0.76999785     0.29700
C3934       C  0.40309022  0.69159712  0.78182238    -0.21120
C3935       C  0.39913050  0.69387331  0.80170424    -0.09170
C3936       C  0.39833171  0.71268657  0.80951080     0.29700
F3937       F  0.39353517  0.71568025  0.82838222    -0.19700
H3938       H  0.40091381  0.74306523  0.80424799     0.18070
H3939       H  0.40358204  0.67724791  0.77549412     0.18080
F3940       F  0.41095752  0.70527872  0.75099155    -0.19680
C3941       C  0.39329094  0.78577759  0.67962016    -0.21120
C3942       C  0.39768292  0.79798992  0.69528681    -0.09160
C3943       C  0.39411475  0.81801459  0.69351458     0.29700
C3944       C  0.38590792  0.82557092  0.67652209    -0.21120
C3945       C  0.38110026  0.81337495  0.66093873    -0.09170
C3946       C  0.38520299  0.79338435  0.66248937     0.29700
F3947       F  0.38097561  0.78110689  0.64770490    -0.19700
H3948       H  0.39603631  0.77033445  0.68068595     0.18070
H3949       H  0.38270676  0.84095248  0.67584298     0.18080
F3950       F  0.39758492  0.83018960  0.70859159    -0.19680
C3951       C  0.37915026  0.83043454  0.77668818    -0.21120
C3952       C  0.38869348  0.81401172  0.78411860    -0.09160
C3953       C  0.38833992  0.81016907  0.80414277     0.29700
C3954       C  0.37814101  0.82247937  0.81656280    -0.21120
C3955       C  0.36886702  0.83911230  0.80920863    -0.09170
C3956       C  0.36957032  0.84315516  0.78920082     0.29700
F3957       F  0.36049732  0.85904599  0.78171472    -0.19700
H3958       H  0.37939107  0.83353149  0.76125745     0.18070
H3959       H  0.37768655  0.81918507  0.83194747     0.18080
F3960       F  0.39741358  0.79425073  0.81156806    -0.19680
loop_ 
_geom_bond_atom_site_label_1 
_geom_bond_atom_site_label_2 
_geom_bond_distance 
_geom_bond_site_symmetry_2 
_ccdc_geom_bond_type 
In1           O3   2.224       .  S
In1           O4   2.256       .  S
In1          O12   2.242       .  S
In1           O6   2.231       .  S
In1           O8   2.230       .  S
In1           O9   2.276       .  S
In1          O10   2.242       .  S
In1          O13   2.212       .  S
C2            O8   1.261       .  A
C2           O10   1.263       .  A
C2         C3952   1.462       .  S
O3           C11   1.260       .  A
O4           C11   1.265       .  A
C5           O12   1.259       .  A
C5            O6   1.258       .  A
C5         C3922   1.473       .  S
C7            O9   1.264       .  A
C7           O13   1.256       .  A
C7         C3932   1.475       .  S
C11        C3942   1.474       .  S
In14         O16   2.240       .  S
In14         O17   2.255       .  S
In14         O25   2.268       .  S
In14         O19   2.244       .  S
In14         O21   2.243       .  S
In14         O22   2.248       .  S
In14         O23   2.235       .  S
In14         O26   2.236       .  S
C15          O21   1.261       .  A
C15          O23   1.259       .  A
C15        C3892   1.474       .  S
O16          C24   1.259       .  A
O17          C24   1.260       .  A
C18          O25   1.261       .  A
C18          O19   1.256       .  A
C18        C3912   1.482       .  S
C20          O22   1.262       .  A
C20          O26   1.261       .  A
C20        C3945   1.479       .  S
C24        C3902   1.479       .  S
In27         O29   2.232       .  S
In27         O30   2.255       .  S
In27         O38   2.237       .  S
In27         O32   2.221       .  S
In27         O34   2.255       .  S
In27         O35   2.254       .  S
In27         O36   2.235       .  S
In27         O39   2.250       .  S
C28          O34   1.258       .  A
C28          O36   1.256       .  A
C28        C3885   1.474       .  S
O29          C37   1.260       .  A
O30          C37   1.264       .  A
C31          O38   1.264       .  A
C31          O32   1.261       .  A
C31        C3925   1.473       .  S
C33          O35   1.260       .  A
C33          O39   1.257       .  A
C33        C3872   1.481       .  S
C37        C3862   1.479       .  S
In40         O42   2.270       .  S
In40         O43   2.236       .  S
In40         O51   2.268       .  S
In40         O45   2.240       .  S
In40         O47   2.252       .  S
In40         O48   2.261       .  S
In40         O49   2.237       .  S
In40         O52   2.235       .  S
C41          O47   1.260       .  A
C41          O49   1.258       .  A
C41        C3832   1.475       .  S
O42          C50   1.261       .  A
O43          C50   1.256       .  A
C44          O51   1.264       .  A
C44          O45   1.259       .  A
C44        C3852   1.486       .  S
C46          O48   1.262       .  A
C46          O52   1.259       .  A
C46        C3842   1.482       .  S
C50        C3875   1.479       .  S
In53         O55   2.218       .  S
In53         O56   2.278       .  S
In53         O64   2.256       .  S
In53         O58   2.220       .  S
In53         O60   2.228       .  S
In53         O61   2.266       .  S
In53         O62   2.243       .  S
In53         O65   2.225       .  S
C54          O60   1.261       .  A
C54          O62   1.265       .  A
C54        C3822   1.475       .  S
O55          C63   1.256       .  A
O56          C63   1.263       .  A
C57          O64   1.261       .  A
C57          O58   1.256       .  A
C57        C3792   1.474       .  S
C59          O61   1.263       .  A
C59          O65   1.257       .  A
C59        C3812   1.478       .  S
C63        C3802   1.478       .  S
In66         O68   2.236       .  S
In66         O69   2.265       .  S
In66         O77   2.264       .  S
In66         O71   2.253       .  S
In66         O73   2.250       .  S
In66         O74   2.259       .  S
In66         O75   2.232       .  S
In66         O78   2.225       .  S
C67          O73   1.263       .  A
C67          O75   1.260       .  A
C67        C3762   1.474       .  S
O68          C76   1.257       .  A
O69          C76   1.260       .  A
C70          O77   1.259       .  A
C70          O71   1.257       .  A
C70        C3782   1.483       .  S
C72          O74   1.264       .  A
C72          O78   1.261       .  A
C72        C3772   1.478       .  S
C76        C3815   1.480       .  S
In79         O81   2.228       .  S
In79         O82   2.271       .  S
In79         O90   2.245       .  S
In79         O84   2.221       .  S
In79         O86   2.237       .  S
In79         O87   2.255       .  S
In79         O88   2.232       .  S
In79         O91   2.234       .  S
C80          O86   1.261       .  A
C80          O88   1.262       .  A
C80        C3752   1.472       .  S
O81          C89   1.257       .  A
O82          C89   1.263       .  A
C83          O90   1.261       .  A
C83          O84   1.260       .  A
C83        C3795   1.472       .  S
C85          O87   1.265       .  A
C85          O91   1.260       .  A
C85        C3732   1.482       .  S
C89        C3742   1.482       .  S
In92         O94   2.231       .  S
In92         O95   2.265       .  S
In92        O103   2.275       .  S
In92         O97   2.246       .  S
In92         O99   2.247       .  S
In92        O100   2.262       .  S
In92        O101   2.232       .  S
In92        O104   2.245       .  S
C93          O99   1.262       .  A
C93         O101   1.260       .  A
C93        C3702   1.473       .  S
O94         C102   1.260       .  A
O95         C102   1.262       .  A
C96         O103   1.261       .  A
C96          O97   1.255       .  A
C96        C3725   1.484       .  S
C98         O100   1.259       .  A
C98         O104   1.258       .  A
C98        C3745   1.481       .  S
C102       C3712   1.480       .  S
In105       O107   2.244       .  S
In105       O108   2.252       .  S
In105       O116   2.250       .  S
In105       O110   2.214       .  S
In105       O112   2.236       .  S
In105       O113   2.265       .  S
In105       O114   2.243       .  S
In105       O117   2.234       .  S
C106        O112   1.259       .  A
C106        O114   1.260       .  A
C106       C3695   1.475       .  S
O107        C115   1.259       .  A
O108        C115   1.261       .  A
C109        O116   1.264       .  A
C109        O110   1.260       .  A
C109       C3662   1.474       .  S
C111        O113   1.262       .  A
C111        O117   1.257       .  A
C111       C3682   1.480       .  S
C115       C3672   1.480       .  S
In118       O120   2.235       .  S
In118       O121   2.252       .  S
In118       O129   2.263       .  S
In118       O123   2.240       .  S
In118       O125   2.255       .  S
In118       O126   2.236       .  S
In118       O127   2.231       .  S
In118       O130   2.258       .  S
C119        O125   1.260       .  A
C119        O127   1.257       .  A
C119       C3632   1.474       .  S
O120        C128   1.260       .  A
O121        C128   1.261       .  A
C122        O129   1.263       .  A
C122        O123   1.258       .  A
C122       C3652   1.483       .  S
C124        O126   1.258       .  A
C124        O130   1.261       .  A
C124       C3642   1.477       .  S
C128       C3685   1.478       .  S
In131       O133   2.235       .  S
In131       O134   2.264       .  S
In131       O142   2.240       .  S
In131       O136   2.221       .  S
In131       O138   2.249       .  S
In131       O139   2.248       .  S
In131       O140   2.231       .  S
In131       O143   2.244       .  S
C132        O138   1.261       .  A
C132        O140   1.261       .  A
C132       C3622   1.477       .  S
O133        C141   1.258       .  A
O134        C141   1.262       .  A
C135        O142   1.263       .  A
C135        O136   1.261       .  A
C135       C3665   1.474       .  S
C137        O139   1.262       .  A
C137        O143   1.259       .  A
C137       C3602   1.476       .  S
C141       C3615   1.481       .  S
In144       O146   2.236       .  S
In144       O147   2.259       .  S
In144       O155   2.274       .  S
In144       O149   2.245       .  S
In144       O151   2.248       .  S
In144       O152   2.252       .  S
In144       O153   2.231       .  S
In144       O156   2.235       .  S
C145        O151   1.262       .  A
C145        O153   1.259       .  A
C145       C3572   1.474       .  S
O146        C154   1.258       .  A
O147        C154   1.261       .  A
C148        O155   1.261       .  A
C148        O149   1.256       .  A
C148       C3592   1.483       .  S
C150        O152   1.263       .  A
C150        O156   1.261       .  A
C150       C3612   1.482       .  S
C154       C3582   1.479       .  S
In157       O159   2.241       .  S
In157       O160   2.262       .  S
In157       O168   2.242       .  S
In157       O162   2.264       .  S
In157       O164   2.253       .  S
In157       O165   2.300       .  S
In157       O166   2.242       .  S
In157       O169   2.238       .  S
C158        O164   1.262       .  A
C158        O166   1.260       .  A
C158       C3542   1.481       .  S
O159        C167   1.259       .  A
O160        C167   1.264       .  A
C161        O168   1.259       .  A
C161        O162   1.262       .  A
C161       C3565   1.481       .  S
C163        O165   1.261       .  A
C163        O169   1.254       .  A
C163       C3552   1.488       .  S
C167       C3785   1.476       .  S
In170       O172   2.246       .  S
In170       O173   2.265       .  S
In170       O181   2.264       .  S
In170       O175   2.238       .  S
In170       O177   2.238       .  S
In170       O178   2.288       .  S
In170       O179   2.255       .  S
In170       O182   2.239       .  S
C171        O177   1.260       .  A
C171        O179   1.263       .  A
C171       C3532   1.481       .  S
O172        C180   1.257       .  A
O173        C180   1.262       .  A
C174        O181   1.263       .  A
C174        O175   1.258       .  A
C174       C3915   1.483       .  S
C176        O178   1.263       .  A
C176        O182   1.257       .  A
C176       C3555   1.489       .  S
C180       C3655   1.483       .  S
In183       O185   2.253       .  S
In183       O186   2.268       .  S
In183       O194   2.265       .  S
In183       O188   2.251       .  S
In183       O190   2.237       .  S
In183       O191   2.298       .  S
In183       O192   2.246       .  S
In183       O195   2.250       .  S
C184        O190   1.263       .  A
C184        O192   1.265       .  A
C184       C3535   1.481       .  S
O185        C193   1.257       .  A
O186        C193   1.262       .  A
C187        O194   1.261       .  A
C187        O188   1.257       .  A
C187       C3595   1.484       .  S
C189        O191   1.262       .  A
C189        O195   1.255       .  A
C189       C3522   1.492       .  S
C193       C3855   1.486       .  S
In196       O198   2.241       .  S
In196       O199   2.273       .  S
In196       O207   2.281       .  S
In196       O201   2.244       .  S
In196       O203   2.241       .  S
In196       O204   2.285       .  S
In196       O205   2.246       .  S
In196       O208   2.246       .  S
C197        O203   1.264       .  A
C197        O205   1.263       .  A
C197       C3545   1.481       .  S
O198        C206   1.255       .  A
O199        C206   1.261       .  A
C200        O207   1.261       .  A
C200        O201   1.254       .  A
C200       C3722   1.484       .  S
C202        O204   1.265       .  A
C202        O208   1.260       .  A
C202       C3525   1.491       .  S
C206       C3512   1.482       .  S
In209       O211   2.225       .  S
In209       O212   2.259       .  S
In209       O220   2.228       .  S
In209       O214   2.220       .  S
In209       O216   2.259       .  S
In209       O217   2.253       .  S
In209       O218   2.226       .  S
In209       O221   2.251       .  S
C210        O216   1.261       .  A
C210        O218   1.258       .  A
C210       C3502   1.476       .  S
O211        C219   1.259       .  A
O212        C219   1.264       .  A
C213        O220   1.264       .  A
C213        O214   1.265       .  A
C213       C3472   1.472       .  S
C215        O217   1.259       .  A
C215        O221   1.255       .  A
C215       C3482   1.474       .  S
C219       C3492   1.480       .  S
In222       O224   2.225       .  S
In222       O225   2.254       .  S
In222       O233   2.263       .  S
In222       O227   2.258       .  S
In222       O229   2.251       .  S
In222       O230   2.263       .  S
In222       O231   2.232       .  S
In222       O234   2.236       .  S
C223        O229   1.262       .  A
C223        O231   1.258       .  A
C223       C3452   1.472       .  S
O224        C232   1.262       .  A
O225        C232   1.265       .  A
C226        O233   1.259       .  A
C226        O227   1.256       .  A
C226       C3562   1.482       .  S
C228        O230   1.260       .  A
C228        O234   1.258       .  A
C228       C3495   1.479       .  S
C232       C3462   1.480       .  S
In235       O237   2.234       .  S
In235       O238   2.263       .  S
In235       O246   2.251       .  S
In235       O240   2.214       .  S
In235       O242   2.231       .  S
In235       O243   2.268       .  S
In235       O244   2.245       .  S
In235       O247   2.231       .  S
C236        O242   1.259       .  A
C236        O244   1.262       .  A
C236       C3445   1.476       .  S
O237        C245   1.257       .  A
O238        C245   1.262       .  A
C239        O246   1.263       .  A
C239        O240   1.258       .  A
C239       C3475   1.473       .  S
C241        O243   1.263       .  A
C241        O247   1.258       .  A
C241       C3432   1.482       .  S
C245       C3422   1.480       .  S
In248       O250   2.231       .  S
In248       O251   2.259       .  S
In248       O259   2.265       .  S
In248       O253   2.234       .  S
In248       O255   2.250       .  S
In248       O256   2.248       .  S
In248       O257   2.230       .  S
In248       O260   2.258       .  S
C249        O255   1.260       .  A
C249        O257   1.257       .  A
C249       C3402   1.474       .  S
O250        C258   1.260       .  A
O251        C258   1.263       .  A
C252        O259   1.264       .  A
C252        O253   1.257       .  A
C252       C3515   1.483       .  S
C254        O256   1.257       .  A
C254        O260   1.260       .  A
C254       C3412   1.481       .  S
C258       C3435   1.482       .  S
In261       O263   2.242       .  S
In261       O264   2.249       .  S
In261       O272   2.246       .  S
In261       O266   2.214       .  S
In261       O268   2.239       .  S
In261       O269   2.266       .  S
In261       O270   2.240       .  S
In261       O273   2.233       .  S
C262        O268   1.259       .  A
C262        O270   1.260       .  A
C262       C3392   1.473       .  S
O263        C271   1.260       .  A
O264        C271   1.264       .  A
C265        O272   1.262       .  A
C265        O266   1.260       .  A
C265       C3362   1.470       .  S
C267        O269   1.263       .  A
C267        O273   1.257       .  A
C267       C3372   1.481       .  S
C271       C3382   1.481       .  S
In274       O276   2.259       .  S
In274       O277   2.245       .  S
In274       O285   2.274       .  S
In274       O279   2.243       .  S
In274       O281   2.259       .  S
In274       O282   2.233       .  S
In274       O283   2.239       .  S
In274       O286   2.260       .  S
C275        O281   1.259       .  A
C275        O283   1.256       .  A
C275       C3342   1.476       .  S
O276        C284   1.260       .  A
O277        C284   1.257       .  A
C278        O285   1.262       .  A
C278        O279   1.256       .  A
C278       C3352   1.484       .  S
C280        O282   1.260       .  A
C280        O286   1.264       .  A
C280       C3385   1.481       .  S
C284       C3735   1.478       .  S
In287       O289   2.218       .  S
In287       O290   2.273       .  S
In287       O298   2.259       .  S
In287       O292   2.213       .  S
In287       O294   2.220       .  S
In287       O295   2.269       .  S
In287       O296   2.246       .  S
In287       O299   2.221       .  S
C288        O294   1.261       .  A
C288        O296   1.264       .  A
C288       C3332   1.475       .  S
O289        C297   1.257       .  A
O290        C297   1.264       .  A
C291        O298   1.261       .  A
C291        O292   1.256       .  A
C291       C3365   1.473       .  S
C293        O295   1.264       .  A
C293        O299   1.257       .  A
C293       C3322   1.477       .  S
C297       C3312   1.479       .  S
In300       O302   2.235       .  S
In300       O303   2.261       .  S
In300       O311   2.274       .  S
In300       O305   2.229       .  S
In300       O307   2.244       .  S
In300       O308   2.245       .  S
In300       O309   2.242       .  S
In300       O312   2.256       .  S
C301        O307   1.260       .  A
C301        O309   1.260       .  A
C301       C3292   1.476       .  S
O302        C310   1.258       .  A
O303        C310   1.260       .  A
C304        O311   1.263       .  A
C304        O305   1.257       .  A
C304       C3302   1.483       .  S
C306        O308   1.258       .  A
C306        O312   1.260       .  A
C306       C3865   1.479       .  S
C310       C3325   1.480       .  S
In313       O315   2.228       .  S
In313       O316   2.261       .  S
In313       O324   2.249       .  S
In313       O318   2.224       .  S
In313       O320   2.241       .  S
In313       O321   2.257       .  S
In313       O322   2.243       .  S
In313       O325   2.244       .  S
C314        O320   1.260       .  A
C314        O322   1.260       .  A
C314       C3282   1.475       .  S
O315        C323   1.260       .  A
O316        C323   1.264       .  A
C317        O324   1.262       .  A
C317        O318   1.259       .  A
C317       C3252   1.474       .  S
C319        O321   1.260       .  A
C319        O325   1.257       .  A
C319       C3272   1.480       .  S
C323       C3262   1.481       .  S
In326       O328   2.257       .  S
In326       O329   2.235       .  S
In326       O337   2.268       .  S
In326       O331   2.235       .  S
In326       O333   2.255       .  S
In326       O334   2.245       .  S
In326       O335   2.239       .  S
In326       O338   2.246       .  S
C327        O333   1.258       .  A
C327        O335   1.256       .  A
C327       C3235   1.474       .  S
O328        C336   1.263       .  A
O329        C336   1.259       .  A
C330        O337   1.263       .  A
C330        O331   1.257       .  A
C330       C3242   1.483       .  S
C332        O334   1.259       .  A
C332        O338   1.261       .  A
C332       C3425   1.474       .  S
C336       C3275   1.479       .  S
In339       O341   2.223       .  S
In339       O342   2.264       .  S
In339       O350   2.243       .  S
In339       O344   2.231       .  S
In339       O346   2.238       .  S
In339       O347   2.257       .  S
In339       O348   2.232       .  S
In339       O351   2.222       .  S
C340        O346   1.262       .  A
C340        O348   1.262       .  A
C340       C3222   1.474       .  S
O341        C349   1.259       .  A
O342        C349   1.264       .  A
C343        O350   1.261       .  A
C343        O344   1.260       .  A
C343       C3255   1.474       .  S
C345        O347   1.265       .  A
C345        O351   1.259       .  A
C345       C3202   1.479       .  S
C349       C3215   1.478       .  S
In352       O354   2.259       .  S
In352       O355   2.232       .  S
In352       O363   2.263       .  S
In352       O357   2.245       .  S
In352       O359   2.256       .  S
In352       O360   2.261       .  S
In352       O361   2.235       .  S
In352       O364   2.224       .  S
C353        O359   1.260       .  A
C353        O361   1.256       .  A
C353       C3182   1.475       .  S
O354        C362   1.262       .  A
O355        C362   1.259       .  A
C356        O363   1.262       .  A
C356        O357   1.259       .  A
C356       C3192   1.482       .  S
C358        O360   1.264       .  A
C358        O364   1.259       .  A
C358       C3212   1.480       .  S
C362       C3605   1.476       .  S
In365       O367   2.227       .  S
In365       O368   2.267       .  S
In365       O376   2.247       .  S
In365       O370   2.227       .  S
In365       O372   2.238       .  S
In365       O373   2.252       .  S
In365       O374   2.244       .  S
In365       O377   2.244       .  S
C366        O372   1.260       .  A
C366        O374   1.261       .  A
C366       C3172   1.476       .  S
O367        C375   1.258       .  A
O368        C375   1.263       .  A
C369        O376   1.262       .  A
C369        O370   1.260       .  A
C369       C3142   1.476       .  S
C371        O373   1.262       .  A
C371        O377   1.259       .  A
C371       C3162   1.481       .  S
C375       C3152   1.481       .  S
In378       O380   2.258       .  S
In378       O381   2.240       .  S
In378       O389   2.270       .  S
In378       O383   2.241       .  S
In378       O385   2.237       .  S
In378       O386   2.282       .  S
In378       O387   2.246       .  S
In378       O390   2.214       .  S
C379        O385   1.260       .  A
C379        O387   1.261       .  A
C379       C3122   1.475       .  S
O380        C388   1.263       .  A
O381        C388   1.260       .  A
C382        O389   1.261       .  A
C382        O383   1.256       .  A
C382       C3132   1.481       .  S
C384        O386   1.263       .  A
C384        O390   1.255       .  A
C384       C3805   1.480       .  S
C388       C3165   1.481       .  S
In391       O393   2.227       .  S
In391       O394   2.271       .  S
In391       O402   2.246       .  S
In391       O396   2.233       .  S
In391       O398   2.236       .  S
In391       O399   2.253       .  S
In391       O400   2.237       .  S
In391       O403   2.229       .  S
C392        O398   1.262       .  A
C392        O400   1.262       .  A
C392       C3112   1.475       .  S
O393        C401   1.256       .  A
O394        C401   1.262       .  A
C395        O402   1.261       .  A
C395        O396   1.259       .  A
C395       C3145   1.474       .  S
C397        O399   1.264       .  A
C397        O403   1.260       .  A
C397       C3092   1.480       .  S
C401       C3102   1.478       .  S
In404       O406   2.217       .  S
In404       O407   2.269       .  S
In404       O415   2.271       .  S
In404       O409   2.246       .  S
In404       O411   2.257       .  S
In404       O412   2.259       .  S
In404       O413   2.223       .  S
In404       O416   2.229       .  S
C405        O411   1.264       .  A
C405        O413   1.258       .  A
C405       C3072   1.471       .  S
O406        C414   1.258       .  A
O407        C414   1.262       .  A
C408        O415   1.260       .  A
C408        O409   1.255       .  A
C408       C3082   1.481       .  S
C410        O412   1.263       .  A
C410        O416   1.260       .  A
C410       C3105   1.479       .  S
C414       C3935   1.476       .  S
In417       O419   2.249       .  S
In417       O420   2.254       .  S
In417       O428   2.262       .  S
In417       O422   2.234       .  S
In417       O424   2.251       .  S
In417       O425   2.253       .  S
In417       O426   2.250       .  S
In417       O429   2.268       .  S
C418        O424   1.259       .  A
C418        O426   1.258       .  A
C418       C3042   1.478       .  S
O419        C427   1.258       .  A
O420        C427   1.261       .  A
C421        O428   1.265       .  A
C421        O422   1.260       .  A
C421       C3062   1.483       .  S
C423        O425   1.260       .  A
C423        O429   1.262       .  A
C423       C3055   1.489       .  S
C427       C3245   1.477       .  S
In430       O432   2.241       .  S
In430       O433   2.257       .  S
In430       O441   2.261       .  S
In430       O435   2.250       .  S
In430       O437   2.252       .  S
In430       O438   2.260       .  S
In430       O439   2.244       .  S
In430       O442   2.255       .  S
C431        O437   1.260       .  A
C431        O439   1.258       .  A
C431       C3032   1.479       .  S
O432        C440   1.259       .  A
O433        C440   1.263       .  A
C434        O441   1.262       .  A
C434        O435   1.258       .  A
C434       C3355   1.480       .  S
C436        O438   1.262       .  A
C436        O442   1.262       .  A
C436       C3052   1.489       .  S
C440       C3135   1.479       .  S
In443       O445   2.255       .  S
In443       O446   2.246       .  S
In443       O454   2.255       .  S
In443       O448   2.243       .  S
In443       O450   2.243       .  S
In443       O451   2.254       .  S
In443       O452   2.248       .  S
In443       O455   2.263       .  S
C444        O450   1.260       .  A
C444        O452   1.260       .  A
C444       C3035   1.479       .  S
O445        C453   1.260       .  A
O446        C453   1.261       .  A
C447        O454   1.263       .  A
C447        O448   1.259       .  A
C447       C3085   1.482       .  S
C449        O451   1.259       .  A
C449        O455   1.261       .  A
C449       C3022   1.487       .  S
C453       C3305   1.481       .  S
In456       O458   2.251       .  S
In456       O459   2.246       .  S
In456       O467   2.256       .  S
In456       O461   2.246       .  S
In456       O463   2.248       .  S
In456       O464   2.256       .  S
In456       O465   2.247       .  S
In456       O468   2.265       .  S
C457        O463   1.260       .  A
C457        O465   1.259       .  A
C457       C3045   1.479       .  S
O458        C466   1.261       .  A
O459        C466   1.262       .  A
C460        O467   1.263       .  A
C460        O461   1.260       .  A
C460       C3195   1.484       .  S
C462        O464   1.259       .  A
C462        O468   1.261       .  A
C462       C3025   1.487       .  S
C466       C3015   1.481       .  S
In469       O471   2.231       .  S
In469       O472   2.259       .  S
In469       O480   2.242       .  S
In469       O474   2.230       .  S
In469       O476   2.235       .  S
In469       O477   2.278       .  S
In469       O478   2.230       .  S
In469       O481   2.220       .  S
C470        O476   1.264       .  A
C470        O478   1.265       .  A
C470       C3005   1.471       .  S
O471        C479   1.259       .  A
O472        C479   1.264       .  A
C473        O480   1.258       .  A
C473        O474   1.258       .  A
C473       C2972   1.472       .  S
C475        O477   1.262       .  A
C475        O481   1.255       .  A
C475       C2982   1.472       .  S
C479       C2992   1.476       .  S
In482       O484   2.222       .  S
In482       O485   2.266       .  S
In482       O493   2.259       .  S
In482       O487   2.256       .  S
In482       O489   2.254       .  S
In482       O490   2.252       .  S
In482       O491   2.219       .  S
In482       O494   2.244       .  S
C483        O489   1.265       .  A
C483        O491   1.259       .  A
C483       C2962   1.474       .  S
O484        C492   1.257       .  A
O485        C492   1.262       .  A
C486        O493   1.260       .  A
C486        O487   1.258       .  A
C486       C3065   1.484       .  S
C488        O490   1.260       .  A
C488        O494   1.259       .  A
C488       C2995   1.480       .  S
C492       C3485   1.465       .  S
In495       O497   2.220       .  S
In495       O498   2.277       .  S
In495       O506   2.255       .  S
In495       O500   2.219       .  S
In495       O502   2.219       .  S
In495       O503   2.266       .  S
In495       O504   2.247       .  S
In495       O507   2.233       .  S
C496        O502   1.260       .  A
C496        O504   1.265       .  A
C496       C2952   1.475       .  S
O497        C505   1.257       .  A
O498        C505   1.263       .  A
C499        O506   1.261       .  A
C499        O500   1.255       .  A
C499       C2975   1.472       .  S
C501        O503   1.262       .  A
C501        O507   1.257       .  A
C501       C2942   1.479       .  S
C505       C2932   1.478       .  S
In508       O510   2.231       .  S
In508       O511   2.255       .  S
In508       O519   2.265       .  S
In508       O513   2.232       .  S
In508       O515   2.258       .  S
In508       O516   2.243       .  S
In508       O517   2.226       .  S
In508       O520   2.258       .  S
C509        O515   1.260       .  A
C509        O517   1.257       .  A
C509       C2922   1.474       .  S
O510        C518   1.260       .  A
O511        C518   1.263       .  A
C512        O519   1.264       .  A
C512        O513   1.259       .  A
C512       C3012   1.483       .  S
C514        O516   1.257       .  A
C514        O520   1.259       .  A
C514       C3675   1.478       .  S
C518       C2945   1.481       .  S
In521       O523   2.223       .  S
In521       O524   2.277       .  S
In521       O532   2.243       .  S
In521       O526   2.230       .  S
In521       O528   2.229       .  S
In521       O529   2.258       .  S
In521       O530   2.238       .  S
In521       O533   2.222       .  S
C522        O528   1.262       .  A
C522        O530   1.263       .  A
C522       C2912   1.471       .  S
O523        C531   1.255       .  A
O524        C531   1.263       .  A
C525        O532   1.260       .  A
C525        O526   1.259       .  A
C525       C2892   1.471       .  S
C527        O529   1.266       .  A
C527        O533   1.260       .  A
C527       C3585   1.479       .  S
C531       C2902   1.478       .  S
In534       O536   2.248       .  S
In534       O537   2.250       .  S
In534       O545   2.268       .  S
In534       O539   2.242       .  S
In534       O541   2.254       .  S
In534       O542   2.253       .  S
In534       O543   2.230       .  S
In534       O546   2.229       .  S
C535        O541   1.261       .  A
C535        O543   1.258       .  A
C535       C2872   1.474       .  S
O536        C544   1.258       .  A
O537        C544   1.257       .  A
C538        O545   1.261       .  A
C538        O539   1.257       .  A
C538       C2882   1.481       .  S
C540        O542   1.263       .  A
C540        O546   1.262       .  A
C540       C2905   1.478       .  S
C544       C3205   1.478       .  S
In547       O549   2.229       .  S
In547       O550   2.264       .  S
In547       O558   2.246       .  S
In547       O552   2.220       .  S
In547       O554   2.238       .  S
In547       O555   2.263       .  S
In547       O556   2.237       .  S
In547       O559   2.241       .  S
C548        O554   1.260       .  A
C548        O556   1.261       .  A
C548       C2862   1.472       .  S
O549        C557   1.259       .  A
O550        C557   1.264       .  A
C551        O558   1.263       .  A
C551        O552   1.259       .  A
C551       C2895   1.472       .  S
C553        O555   1.261       .  A
C553        O559   1.256       .  A
C553       C2852   1.481       .  S
C557       C3845   1.481       .  S
In560       O562   2.253       .  S
In560       O563   2.238       .  S
In560       O571   2.276       .  S
In560       O565   2.236       .  S
In560       O567   2.258       .  S
In560       O568   2.265       .  S
In560       O569   2.226       .  S
In560       O572   2.221       .  S
C561        O567   1.262       .  A
C561        O569   1.257       .  A
C561       C2832   1.476       .  S
O562        C570   1.263       .  A
O563        C570   1.260       .  A
C564        O571   1.262       .  A
C564        O565   1.256       .  A
C564       C2842   1.483       .  S
C566        O568   1.263       .  A
C566        O572   1.259       .  A
C566       C3315   1.479       .  S
C570       C2855   1.479       .  S
In573       O575   2.241       .  S
In573       O576   2.252       .  S
In573       O584   2.248       .  S
In573       O578   2.223       .  S
In573       O580   2.236       .  S
In573       O581   2.277       .  S
In573       O582   2.233       .  S
In573       O585   2.223       .  S
C574        O580   1.262       .  A
C574        O582   1.262       .  A
C574       C2825   1.475       .  S
O575        C583   1.258       .  A
O576        C583   1.262       .  A
C577        O584   1.262       .  A
C577        O578   1.259       .  A
C577       C2802   1.475       .  S
C579        O581   1.263       .  A
C579        O585   1.256       .  A
C579       C2812   1.479       .  S
C583       C3645   1.479       .  S
In586       O588   2.225       .  S
In586       O589   2.267       .  S
In586       O597   2.280       .  S
In586       O591   2.236       .  S
In586       O593   2.247       .  S
In586       O594   2.283       .  S
In586       O595   2.226       .  S
In586       O598   2.215       .  S
C587        O593   1.264       .  A
C587        O595   1.261       .  A
C587       C2782   1.474       .  S
O588        C596   1.260       .  A
O589        C596   1.264       .  A
C590        O597   1.260       .  A
C590        O591   1.254       .  A
C590       C2792   1.482       .  S
C592        O594   1.263       .  A
C592        O598   1.256       .  A
C592       C2935   1.479       .  S
C596       C2815   1.479       .  S
In599       O601   2.217       .  S
In599       O602   2.277       .  S
In599       O610   2.248       .  S
In599       O604   2.228       .  S
In599       O606   2.233       .  S
In599       O607   2.257       .  S
In599       O608   2.238       .  S
In599       O611   2.226       .  S
C600        O606   1.262       .  A
C600        O608   1.263       .  A
C600       C2772   1.471       .  S
O601        C609   1.255       .  A
O602        C609   1.263       .  A
C603        O610   1.260       .  A
C603        O604   1.258       .  A
C603       C2805   1.473       .  S
C605        O607   1.265       .  A
C605        O611   1.260       .  A
C605       C3905   1.479       .  S
C609       C2762   1.476       .  S
In612       O614   2.248       .  S
In612       O615   2.247       .  S
In612       O623   2.272       .  S
In612       O617   2.241       .  S
In612       O619   2.254       .  S
In612       O620   2.265       .  S
In612       O621   2.234       .  S
In612       O624   2.220       .  S
C613        O619   1.261       .  A
C613        O621   1.259       .  A
C613       C2745   1.475       .  S
O614        C622   1.261       .  A
O615        C622   1.259       .  A
C616        O623   1.261       .  A
C616        O617   1.257       .  A
C616       C2752   1.483       .  S
C618        O620   1.263       .  A
C618        O624   1.259       .  A
C618       C2765   1.478       .  S
C622       C3095   1.479       .  S
In625       O627   2.243       .  S
In625       O628   2.257       .  S
In625       O636   2.258       .  S
In625       O630   2.212       .  S
In625       O632   2.240       .  S
In625       O633   2.254       .  S
In625       O634   2.246       .  S
In625       O637   2.250       .  S
C626        O632   1.257       .  A
C626        O634   1.259       .  A
C626       C2732   1.475       .  S
O627        C635   1.258       .  A
O628        C635   1.262       .  A
C629        O636   1.264       .  A
C629        O630   1.258       .  A
C629       C2712   1.475       .  S
C631        O633   1.261       .  A
C631        O637   1.259       .  A
C631       C2725   1.482       .  S
C635       C3415   1.480       .  S
In638       O640   2.257       .  S
In638       O641   2.241       .  S
In638       O649   2.271       .  S
In638       O643   2.241       .  S
In638       O645   2.244       .  S
In638       O646   2.273       .  S
In638       O647   2.246       .  S
In638       O650   2.232       .  S
C639        O645   1.260       .  A
C639        O647   1.258       .  A
C639       C2695   1.475       .  S
O640        C648   1.264       .  A
O641        C648   1.261       .  A
C642        O649   1.262       .  A
C642        O643   1.257       .  A
C642       C2702   1.481       .  S
C644        O646   1.261       .  A
C644        O650   1.256       .  A
C644       C3265   1.480       .  S
C648       C2722   1.483       .  S
In651       O653   2.240       .  S
In651       O654   2.253       .  S
In651       O662   2.246       .  S
In651       O656   2.222       .  S
In651       O658   2.243       .  S
In651       O659   2.274       .  S
In651       O660   2.226       .  S
In651       O663   2.220       .  S
C652        O658   1.262       .  A
C652        O660   1.262       .  A
C652       C2682   1.472       .  S
O653        C661   1.259       .  A
O654        C661   1.263       .  A
C655        O662   1.261       .  A
C655        O656   1.260       .  A
C655       C2715   1.473       .  S
C657        O659   1.265       .  A
C657        O663   1.258       .  A
C657       C3715   1.479       .  S
C661       C2675   1.481       .  S
In664       O666   2.247       .  S
In664       O667   2.246       .  S
In664       O675   2.275       .  S
In664       O669   2.243       .  S
In664       O671   2.258       .  S
In664       O672   2.231       .  S
In664       O673   2.233       .  S
In664       O676   2.264       .  S
C665        O671   1.260       .  A
C665        O673   1.256       .  A
C665       C2652   1.474       .  S
O666        C674   1.261       .  A
O667        C674   1.260       .  A
C668        O675   1.263       .  A
C668        O669   1.258       .  A
C668       C2662   1.487       .  S
C670        O672   1.258       .  A
C670        O676   1.263       .  A
C670       C2672   1.477       .  S
C674       C3375   1.476       .  S
In677       O679   2.265       .  S
In677       O680   2.254       .  S
In677       O688   2.256       .  S
In677       O682   2.261       .  S
In677       O684   2.266       .  S
In677       O685   2.252       .  S
In677       O686   2.241       .  S
In677       O689   2.256       .  S
C678        O684   1.261       .  A
C678        O686   1.258       .  A
C678       C2622   1.478       .  S
O679        C687   1.257       .  A
O680        C687   1.257       .  A
C681        O688   1.259       .  A
C681        O682   1.259       .  A
C681       C2642   1.484       .  S
C683        O685   1.265       .  A
C683        O689   1.265       .  A
C683       C2635   1.488       .  S
C687       C2795   1.482       .  S
In690       O692   2.246       .  S
In690       O693   2.260       .  S
In690       O701   2.255       .  S
In690       O695   2.253       .  S
In690       O697   2.253       .  S
In690       O698   2.264       .  S
In690       O699   2.248       .  S
In690       O702   2.252       .  S
C691        O697   1.260       .  A
C691        O699   1.259       .  A
C691       C2612   1.478       .  S
O692        C700   1.259       .  A
O693        C700   1.263       .  A
C694        O701   1.261       .  A
C694        O695   1.259       .  A
C694       C2885   1.480       .  S
C696        O698   1.263       .  A
C696        O702   1.261       .  A
C696       C2632   1.489       .  S
C700       C2705   1.484       .  S
In703       O705   2.259       .  S
In703       O706   2.254       .  S
In703       O714   2.255       .  S
In703       O708   2.257       .  S
In703       O710   2.251       .  S
In703       O711   2.257       .  S
In703       O712   2.244       .  S
In703       O715   2.262       .  S
C704        O710   1.262       .  A
C704        O712   1.260       .  A
C704       C2615   1.479       .  S
O705        C713   1.259       .  A
O706        C713   1.260       .  A
C707        O714   1.262       .  A
C707        O708   1.261       .  A
C707       C2665   1.487       .  S
C709        O711   1.261       .  A
C709        O715   1.262       .  A
C709       C2602   1.488       .  S
C713       C2845   1.484       .  S
In716       O718   2.268       .  S
In716       O719   2.251       .  S
In716       O727   2.250       .  S
In716       O721   2.265       .  S
In716       O723   2.264       .  S
In716       O724   2.254       .  S
In716       O725   2.239       .  S
In716       O728   2.257       .  S
C717        O723   1.262       .  A
C717        O725   1.259       .  A
C717       C2625   1.479       .  S
O718        C726   1.257       .  A
O719        C726   1.256       .  A
C720        O727   1.258       .  A
C720        O721   1.259       .  A
C720       C2755   1.483       .  S
C722        O724   1.264       .  A
C722        O728   1.265       .  A
C722       C2605   1.488       .  S
C726       C2592   1.482       .  S
In729       O731   2.235       .  S
In729       O732   2.261       .  S
In729       O740   2.247       .  S
In729       O734   2.228       .  S
In729       O736   2.239       .  S
In729       O737   2.265       .  S
In729       O738   2.236       .  S
In729       O741   2.223       .  S
C730        O736   1.262       .  A
C730        O738   1.262       .  A
C730       C2585   1.475       .  S
O731        C739   1.258       .  A
O732        C739   1.263       .  A
C733        O740   1.261       .  A
C733        O734   1.260       .  A
C733       C2562   1.476       .  S
C735        O737   1.264       .  A
C735        O741   1.259       .  A
C735       C3465   1.478       .  S
C739       C2575   1.482       .  S
In742       O744   2.211       .  S
In742       O745   2.287       .  S
In742       O753   2.274       .  S
In742       O747   2.247       .  S
In742       O749   2.241       .  S
In742       O750   2.248       .  S
In742       O751   2.237       .  S
In742       O754   2.248       .  S
C743        O749   1.262       .  A
C743        O751   1.262       .  A
C743       C2555   1.476       .  S
O744        C752   1.254       .  A
O745        C752   1.264       .  A
C746        O753   1.261       .  A
C746        O747   1.256       .  A
C746       C2645   1.485       .  S
C748        O750   1.260       .  A
C748        O754   1.262       .  A
C748       C2572   1.481       .  S
C752       C2985   1.478       .  S
In755       O757   2.225       .  S
In755       O758   2.273       .  S
In755       O766   2.251       .  S
In755       O760   2.225       .  S
In755       O762   2.241       .  S
In755       O763   2.253       .  S
In755       O764   2.233       .  S
In755       O767   2.247       .  S
C756        O762   1.262       .  A
C756        O764   1.262       .  A
C756       C2542   1.476       .  S
O757        C765   1.257       .  A
O758        C765   1.262       .  A
C759        O766   1.262       .  A
C759        O760   1.259       .  A
C759       C2565   1.476       .  S
C761        O763   1.261       .  A
C761        O767   1.258       .  A
C761       C2532   1.481       .  S
C765       C3775   1.478       .  S
In768       O770   2.255       .  S
In768       O771   2.239       .  S
In768       O779   2.272       .  S
In768       O773   2.232       .  S
In768       O775   2.262       .  S
In768       O776   2.265       .  S
In768       O777   2.222       .  S
In768       O780   2.222       .  S
C769        O775   1.261       .  A
C769        O777   1.256       .  A
C769       C2522   1.476       .  S
O770        C778   1.262       .  A
O771        C778   1.260       .  A
C772        O779   1.262       .  A
C772        O773   1.257       .  A
C772       C2595   1.480       .  S
C774        O776   1.264       .  A
C774        O780   1.259       .  A
C774       C3155   1.480       .  S
C778       C2535   1.479       .  S
In781       O783   2.234       .  S
In781       O784   2.259       .  S
In781       O792   2.246       .  S
In781       O786   2.223       .  S
In781       O788   2.244       .  S
In781       O789   2.270       .  S
In781       O790   2.229       .  S
In781       O793   2.218       .  S
C782        O788   1.261       .  A
C782        O790   1.261       .  A
C782       C2742   1.472       .  S
O783        C791   1.258       .  A
O784        C791   1.263       .  A
C785        O792   1.262       .  A
C785        O786   1.259       .  A
C785       C2492   1.471       .  S
C787        O789   1.265       .  A
C787        O793   1.257       .  A
C787       C2515   1.479       .  S
C791       C2502   1.480       .  S
In794       O796   2.229       .  S
In794       O797   2.254       .  S
In794       O805   2.282       .  S
In794       O799   2.231       .  S
In794       O801   2.241       .  S
In794       O802   2.271       .  S
In794       O803   2.242       .  S
In794       O806   2.232       .  S
C795        O801   1.260       .  A
C795        O803   1.260       .  A
C795       C3115   1.470       .  S
O796        C804   1.262       .  A
O797        C804   1.263       .  A
C798        O805   1.262       .  A
C798        O799   1.254       .  A
C798       C2482   1.482       .  S
C800        O802   1.259       .  A
C800        O806   1.256       .  A
C800       C2475   1.479       .  S
C804       C2512   1.480       .  S
In807       O809   2.234       .  S
In807       O810   2.257       .  S
In807       O818   2.240       .  S
In807       O812   2.226       .  S
In807       O814   2.238       .  S
In807       O815   2.258       .  S
In807       O816   2.232       .  S
In807       O819   2.224       .  S
C808        O814   1.261       .  A
C808        O816   1.262       .  A
C808       C2835   1.475       .  S
O809        C817   1.259       .  A
O810        C817   1.264       .  A
C811        O818   1.261       .  A
C811        O812   1.260       .  A
C811       C2495   1.472       .  S
C813        O815   1.265       .  A
C813        O819   1.259       .  A
C813       C2452   1.480       .  S
C817       C2465   1.481       .  S
In820       O822   2.260       .  S
In820       O823   2.238       .  S
In820       O831   2.274       .  S
In820       O825   2.239       .  S
In820       O827   2.240       .  S
In820       O828   2.242       .  S
In820       O829   2.245       .  S
In820       O832   2.255       .  S
C821        O827   1.259       .  A
C821        O829   1.259       .  A
C821       C3335   1.475       .  S
O822        C830   1.260       .  A
O823        C830   1.256       .  A
C824        O831   1.262       .  A
C824        O825   1.256       .  A
C824       C2442   1.483       .  S
C826        O828   1.259       .  A
C826        O832   1.261       .  A
C826       C2462   1.479       .  S
C830       C2432   1.478       .  S
In833       O835   2.233       .  S
In833       O836   2.260       .  S
In833       O844   2.243       .  S
In833       O838   2.224       .  S
In833       O840   2.247       .  S
In833       O841   2.258       .  S
In833       O842   2.229       .  S
In833       O845   2.233       .  S
C834        O840   1.261       .  A
C834        O842   1.261       .  A
C834       C2525   1.474       .  S
O835        C843   1.260       .  A
O836        C843   1.264       .  A
C837        O844   1.262       .  A
C837        O838   1.261       .  A
C837       C2402   1.475       .  S
C839        O841   1.264       .  A
C839        O845   1.259       .  A
C839       C2412   1.480       .  S
C843       C2422   1.482       .  S
In846       O848   2.238       .  S
In846       O849   2.260       .  S
In846       O857   2.275       .  S
In846       O851   2.245       .  S
In846       O853   2.243       .  S
In846       O854   2.254       .  S
In846       O855   2.237       .  S
In846       O858   2.249       .  S
C847        O853   1.261       .  A
C847        O855   1.260       .  A
C847       C3175   1.476       .  S
O848        C856   1.259       .  A
O849        C856   1.261       .  A
C850        O857   1.261       .  A
C850        O851   1.256       .  A
C850       C2392   1.485       .  S
C852        O854   1.260       .  A
C852        O858   1.260       .  A
C852       C2425   1.483       .  S
C856       C2382   1.481       .  S
In859       O861   2.233       .  S
In859       O862   2.266       .  S
In859       O870   2.258       .  S
In859       O864   2.218       .  S
In859       O866   2.231       .  S
In859       O867   2.266       .  S
In859       O868   2.246       .  S
In859       O871   2.238       .  S
C860        O866   1.259       .  A
C860        O868   1.262       .  A
C860       C2655   1.476       .  S
O861        C869   1.258       .  A
O862        C869   1.263       .  A
C863        O870   1.262       .  A
C863        O864   1.257       .  A
C863       C2405   1.475       .  S
C865        O867   1.263       .  A
C865        O871   1.258       .  A
C865       C2375   1.483       .  S
C869       C2362   1.483       .  S
In872       O874   2.249       .  S
In872       O875   2.254       .  S
In872       O883   2.272       .  S
In872       O877   2.244       .  S
In872       O879   2.250       .  S
In872       O880   2.275       .  S
In872       O881   2.225       .  S
In872       O884   2.216       .  S
C873        O879   1.263       .  A
C873        O881   1.260       .  A
C873       C3395   1.475       .  S
O874        C882   1.260       .  A
O875        C882   1.260       .  A
C876        O883   1.262       .  A
C876        O877   1.256       .  A
C876       C2352   1.484       .  S
C878        O880   1.263       .  A
C878        O884   1.257       .  A
C878       C2342   1.478       .  S
C882       C2372   1.483       .  S
In885       O887   2.233       .  S
In885       O888   2.247       .  S
In885       O896   2.249       .  S
In885       O890   2.223       .  S
In885       O892   2.234       .  S
In885       O893   2.276       .  S
In885       O894   2.232       .  S
In885       O897   2.220       .  S
C886        O892   1.262       .  A
C886        O894   1.263       .  A
C886       C2785   1.471       .  S
O887        C895   1.261       .  A
O888        C895   1.265       .  A
C889        O896   1.260       .  A
C889        O890   1.258       .  A
C889       C2312   1.467       .  S
C891        O893   1.263       .  A
C891        O897   1.256       .  A
C891       C2322   1.479       .  S
C895       C2332   1.480       .  S
In898       O900   2.230       .  S
In898       O901   2.265       .  S
In898       O909   2.271       .  S
In898       O903   2.241       .  S
In898       O905   2.243       .  S
In898       O906   2.242       .  S
In898       O907   2.232       .  S
In898       O910   2.249       .  S
C899        O905   1.262       .  A
C899        O907   1.260       .  A
C899       C2955   1.474       .  S
O900        C908   1.258       .  A
O901        C908   1.261       .  A
C902        O909   1.262       .  A
C902        O903   1.256       .  A
C902       C2302   1.484       .  S
C904        O906   1.260       .  A
C904        O910   1.261       .  A
C904       C2335   1.480       .  S
C908       C2292   1.479       .  S
In911       O913   2.226       .  S
In911       O914   2.266       .  S
In911       O922   2.255       .  S
In911       O916   2.215       .  S
In911       O918   2.240       .  S
In911       O919   2.257       .  S
In911       O920   2.239       .  S
In911       O923   2.232       .  S
C912        O918   1.259       .  A
C912        O920   1.260       .  A
C912       C2875   1.472       .  S
O913        C921   1.259       .  A
O914        C921   1.265       .  A
C915        O922   1.262       .  A
C915        O916   1.258       .  A
C915       C2315   1.469       .  S
C917        O919   1.264       .  A
C917        O923   1.259       .  A
C917       C2282   1.481       .  S
C921       C2272   1.482       .  S
In924       O926   2.255       .  S
In924       O927   2.248       .  S
In924       O935   2.278       .  S
In924       O929   2.237       .  S
In924       O931   2.250       .  S
In924       O932   2.260       .  S
In924       O933   2.235       .  S
In924       O936   2.231       .  S
C925        O931   1.260       .  A
C925        O933   1.259       .  A
C925       C3225   1.476       .  S
O926        C934   1.260       .  A
O927        C934   1.258       .  A
C928        O935   1.263       .  A
C928        O929   1.256       .  A
C928       C2262   1.485       .  S
C930        O932   1.262       .  A
C930        O936   1.260       .  A
C930       C2252   1.481       .  S
C934       C2285   1.481       .  S
In937       O939   2.217       .  S
In937       O940   2.266       .  S
In937       O948   2.244       .  S
In937       O942   2.216       .  S
In937       O944   2.255       .  S
In937       O945   2.253       .  S
In937       O946   2.231       .  S
In937       O949   2.246       .  S
C938        O944   1.260       .  A
C938        O946   1.258       .  A
C938       C2552   1.472       .  S
O939        C947   1.259       .  A
O940        C947   1.265       .  A
C941        O948   1.263       .  A
C941        O942   1.260       .  A
C941       C2222   1.473       .  S
C943        O945   1.261       .  A
C943        O949   1.257       .  A
C943       C2245   1.480       .  S
C947       C2232   1.480       .  S
In950       O952   2.272       .  S
In950       O953   2.231       .  S
In950       O961   2.257       .  S
In950       O955   2.247       .  S
In950       O957   2.264       .  S
In950       O958   2.257       .  S
In950       O959   2.221       .  S
In950       O962   2.221       .  S
C951        O957   1.262       .  A
C951        O959   1.255       .  A
C951       C3002   1.474       .  S
O952        C960   1.261       .  A
O953        C960   1.255       .  A
C954        O961   1.262       .  A
C954        O955   1.259       .  A
C954       C2215   1.482       .  S
C956        O958   1.264       .  A
C956        O962   1.262       .  A
C956       C2202   1.480       .  S
C960       C2242   1.481       .  S
In963       O965   2.225       .  S
In963       O966   2.271       .  S
In963       O974   2.249       .  S
In963       O968   2.218       .  S
In963       O970   2.227       .  S
In963       O971   2.261       .  S
In963       O972   2.241       .  S
In963       O975   2.220       .  S
C964        O970   1.260       .  A
C964        O972   1.263       .  A
C964       C2692   1.470       .  S
O965        C973   1.257       .  A
O966        C973   1.264       .  A
C967        O974   1.261       .  A
C967        O968   1.258       .  A
C967       C2225   1.473       .  S
C969        O971   1.266       .  A
C969        O975   1.259       .  A
C969       C2182   1.478       .  S
C973       C2192   1.480       .  S
In976       O978   2.240       .  S
In976       O979   2.262       .  S
In976       O987   2.276       .  S
In976       O981   2.244       .  S
In976       O983   2.244       .  S
In976       O984   2.251       .  S
In976       O985   2.241       .  S
In976       O988   2.245       .  S
C977        O983   1.261       .  A
C977        O985   1.261       .  A
C977       C3285   1.477       .  S
O978        C986   1.258       .  A
O979        C986   1.259       .  A
C980        O987   1.261       .  A
C980        O981   1.256       .  A
C980       C2172   1.483       .  S
C982        O984   1.260       .  A
C982        O988   1.261       .  A
C982       C2195   1.480       .  S
C986       C2162   1.480       .  S
In989       O991   2.239       .  S
In989       O992   2.238   1_556  S
In989      O1000   2.249   1_556  S
In989       O994   2.281       .  S
In989       O996   2.251       .  S
In989       O997   2.252   1_556  S
In989       O998   2.254       .  S
In989      O1001   2.263   1_556  S
C990        O996   1.261       .  A
C990        O998   1.259       .  A
C990       C2485   1.483       .  S
O991        C999   1.264       .  A
O992        C999   1.264   1_554  A
C993       O1000   1.258   1_556  A
C993        O994   1.261       .  A
C993       C2152   1.483       .  S
C995        O997   1.257       .  A
C995       O1001   1.260       .  A
C995       C2305   1.483       .  S
C999       C2145   1.479       .  S
In1002     O1004   2.251   1_556  S
In1002     O1005   2.241       .  S
In1002     O1013   2.258       .  S
In1002     O1007   2.267   1_556  S
In1002     O1009   2.258   1_556  S
In1002     O1010   2.246       .  S
In1002     O1011   2.249   1_556  S
In1002     O1014   2.266       .  S
C1003      O1009   1.263       .  A
C1003      O1011   1.259       .  A
C1003      C2265   1.483       .  S
O1004      C1012   1.261   1_554  A
O1005      C1012   1.260       .  A
C1006      O1013   1.261       .  A
C1006      O1007   1.263   1_556  A
C1006      C2132   1.490       .  S
C1008      O1010   1.257       .  A
C1008      O1014   1.262       .  A
C1008      C2445   1.482       .  S
C1012      C2142   1.479       .  S
In1015     O1017   2.242   1_556  S
In1015     O1018   2.273   1_556  S
In1015     O1026   2.267       .  S
In1015     O1020   2.246       .  S
In1015     O1022   2.236       .  S
In1015     O1023   2.289       .  S
In1015     O1024   2.253   1_556  S
In1015     O1027   2.240       .  S
C1016      O1022   1.263       .  A
C1016      O1024   1.264   1_556  A
C1016      C2125   1.481       .  S
O1017      C1025   1.255       .  A
O1018      C1025   1.261       .  A
C1019      O1026   1.262       .  A
C1019      O1020   1.258       .  A
C1019      C2395   1.484       .  S
C1021      O1023   1.264       .  A
C1021      O1027   1.257       .  A
C1021      C2155   1.487       .  S
C1025      C2212   1.483       .  S
In1028     O1030   2.244       .  S
In1028     O1031   2.267       .  S
In1028     O1039   2.254   1_556  S
In1028     O1033   2.251   1_556  S
In1028     O1035   2.259   1_556  S
In1028     O1036   2.262       .  S
In1028     O1037   2.236       .  S
In1028     O1040   2.266   1_556  S
C1029      O1035   1.262   1_556  A
C1029      O1037   1.259       .  A
C1029      C2122   1.480       .  S
O1030      C1038   1.257       .  A
O1031      C1038   1.262       .  A
C1032      O1039   1.262       .  A
C1032      O1033   1.260       .  A
C1032      C2175   1.483       .  S
C1034      O1036   1.261       .  A
C1034      O1040   1.261   1_556  A
C1034      C2135   1.489       .  S
C1038      C2355   1.484       .  S
In1041     O1043   2.223       .  S
In1041     O1044   2.274       .  S
In1041     O1052   2.251       .  S
In1041     O1046   2.221       .  S
In1041     O1048   2.234       .  S
In1041     O1049   2.261       .  S
In1041     O1050   2.243       .  S
In1041     O1053   2.232       .  S
C1042      O1048   1.260       .  A
C1042      O1050   1.262       .  A
C1042      C3185   1.471       .  S
O1043      C1051   1.256       .  A
O1044      C1051   1.264       .  A
C1045      O1052   1.262       .  A
C1045      O1046   1.258       .  A
C1045      C2102   1.474       .  S
C1047      O1049   1.264       .  A
C1047      O1053   1.259       .  A
C1047      C2115   1.482       .  S
C1051      C2255   1.482       .  S
In1054     O1056   2.247       .  S
In1054     O1057   2.244       .  S
In1054     O1065   2.269       .  S
In1054     O1059   2.239       .  S
In1054     O1061   2.258       .  S
In1054     O1062   2.279       .  S
In1054     O1063   2.223       .  S
In1054     O1066   2.211       .  S
C1055      O1061   1.263       .  A
C1055      O1063   1.259       .  A
C1055      C3625   1.476       .  S
O1056      C1064   1.262       .  A
O1057      C1064   1.261       .  A
C1058      O1065   1.262       .  A
C1058      O1059   1.257       .  A
C1058      C2095   1.483       .  S
C1060      O1062   1.263       .  A
C1060      O1066   1.256       .  A
C1060      C2082   1.478       .  S
C1064      C2112   1.481       .  S
In1067     O1069   2.234       .  S
In1067     O1070   2.261       .  S
In1067     O1078   2.243       .  S
In1067     O1072   2.224       .  S
In1067     O1074   2.239       .  S
In1067     O1075   2.248       .  S
In1067     O1076   2.239       .  S
In1067     O1079   2.235       .  S
C1068      O1074   1.260       .  A
C1068      O1076   1.261       .  A
C1068      C3295   1.476       .  S
O1069      C1077   1.258       .  A
O1070      C1077   1.263       .  A
C1071      O1078   1.261       .  A
C1071      O1072   1.260       .  A
C1071      C2105   1.472       .  S
C1073      O1075   1.264       .  A
C1073      O1079   1.260       .  A
C1073      C2435   1.480       .  S
C1077      C2072   1.481       .  S
In1080     O1082   2.228       .  S
In1080     O1083   2.273       .  S
In1080     O1091   2.270       .  S
In1080     O1085   2.246       .  S
In1080     O1087   2.246       .  S
In1080     O1088   2.248       .  S
In1080     O1089   2.237       .  S
In1080     O1092   2.251       .  S
C1081      O1087   1.261       .  A
C1081      O1089   1.259       .  A
C1081      C3882   1.474       .  S
O1082      C1090   1.257       .  A
O1083      C1090   1.262       .  A
C1084      O1091   1.261       .  A
C1084      O1085   1.255       .  A
C1084      C2062   1.482       .  S
C1086      O1088   1.260       .  A
C1086      O1092   1.263       .  A
C1086      C2075   1.481       .  S
C1090      C2052   1.480       .  S
In1093     O1095   2.240       .  S
In1093     O1096   2.251       .  S
In1093     O1104   2.235       .  S
In1093     O1098   2.220       .  S
In1093     O1100   2.244       .  S
In1093     O1101   2.263       .  S
In1093     O1102   2.225       .  S
In1093     O1105   2.222       .  S
C1094      O1100   1.262       .  A
C1094      O1102   1.261       .  A
C1094      C2925   1.472       .  S
O1095      C1103   1.257       .  A
O1096      C1103   1.262       .  A
C1097      O1104   1.262       .  A
C1097      O1098   1.262       .  A
C1097      C2032   1.470       .  S
C1099      O1101   1.265       .  A
C1099      O1105   1.259       .  A
C1099      C2295   1.477       .  S
C1103      C2042   1.478       .  S
In1106     O1108   2.250       .  S
In1106     O1109   2.243       .  S
In1106     O1117   2.271       .  S
In1106     O1111   2.239       .  S
In1106     O1113   2.254       .  S
In1106     O1114   2.220       .  S
In1106     O1115   2.237       .  S
In1106     O1118   2.271       .  S
C1107      O1113   1.260       .  A
C1107      O1115   1.256       .  A
C1107      C3692   1.474       .  S
O1108      C1116   1.260       .  A
O1109      C1116   1.258       .  A
C1110      O1117   1.263       .  A
C1110      O1111   1.258       .  A
C1110      C2022   1.484       .  S
C1112      O1114   1.256       .  A
C1112      O1118   1.263       .  A
C1112      C2045   1.475       .  S
C1116      C2012   1.474       .  S
In1119     O1121   2.219       .  S
In1119     O1122   2.270       .  S
In1119     O1130   2.248       .  S
In1119     O1124   2.219       .  S
In1119     O1126   2.236       .  S
In1119     O1127   2.256       .  S
In1119     O1128   2.243       .  S
In1119     O1131   2.234       .  S
C1120      O1126   1.258       .  A
C1120      O1128   1.261       .  A
C1120      C3075   1.469       .  S
O1121      C1129   1.257       .  A
O1122      C1129   1.264       .  A
C1123      O1130   1.261       .  A
C1123      O1124   1.257       .  A
C1123      C2035   1.472       .  S
C1125      O1127   1.264       .  A
C1125      O1131   1.260       .  A
C1125      C2002   1.481       .  S
C1129      C2472   1.480       .  S
In1132     O1134   2.240       .  S
In1132     O1135   2.251       .  S
In1132     O1143   2.271       .  S
In1132     O1137   2.241       .  S
In1132     O1139   2.247       .  S
In1132     O1140   2.268       .  S
In1132     O1141   2.251       .  S
In1132     O1144   2.226       .  S
C1133      O1139   1.257       .  A
C1133      O1141   1.257       .  A
C1133      C3955   1.466       .  S
O1134      C1142   1.262       .  A
O1135      C1142   1.263       .  A
C1136      O1143   1.260       .  A
C1136      O1137   1.256       .  A
C1136      C1992   1.483       .  S
C1138      O1140   1.263       .  A
C1138      O1144   1.258       .  A
C1138      C1982   1.481       .  S
C1142      C2005   1.482       .  S
In1145     O1147   2.236       .  S
In1145     O1148   2.258       .  S
In1145     O1156   2.234       .  S
In1145     O1150   2.228       .  S
In1145     O1152   2.239       .  S
In1145     O1153   2.258       .  S
In1145     O1154   2.229       .  S
In1145     O1157   2.224       .  S
C1146      O1152   1.261       .  A
C1146      O1154   1.261       .  A
C1146      C3232   1.470       .  S
O1147      C1155   1.257       .  A
O1148      C1155   1.262       .  A
C1149      O1156   1.261       .  A
C1149      O1150   1.260       .  A
C1149      C1962   1.469       .  S
C1151      O1153   1.265       .  A
C1151      O1157   1.260       .  A
C1151      C2165   1.479       .  S
C1155      C1972   1.480       .  S
In1158     O1160   2.244       .  S
In1158     O1161   2.245       .  S
In1158     O1169   2.272       .  S
In1158     O1163   2.238       .  S
In1158     O1165   2.254       .  S
In1158     O1166   2.228       .  S
In1158     O1167   2.236       .  S
In1158     O1170   2.256       .  S
C1159      O1165   1.260       .  A
C1159      O1167   1.257       .  A
C1159      C3442   1.473       .  S
O1160      C1168   1.260       .  A
O1161      C1168   1.259       .  A
C1162      O1169   1.262       .  A
C1162      O1163   1.257       .  A
C1162      C1955   1.484       .  S
C1164      O1166   1.259       .  A
C1164      O1170   1.263       .  A
C1164      C1975   1.476       .  S
C1168      C1942   1.473       .  S
In1171     O1173   2.215       .  S
In1171     O1174   2.271       .  S
In1171     O1182   2.239       .  S
In1171     O1176   2.239       .  S
In1171     O1178   2.239       .  S
In1171     O1179   2.291       .  S
In1171     O1180   2.226       .  S
In1171     O1183   2.218       .  S
C1172      O1178   1.265       .  A
C1172      O1180   1.265       .  A
C1172      C3345   1.472       .  S
O1173      C1181   1.258       .  A
O1174      C1181   1.264       .  A
C1175      O1182   1.258       .  A
C1175      O1176   1.258       .  A
C1175      C1965   1.472       .  S
C1177      O1179   1.260       .  A
C1177      O1183   1.252       .  A
C1177      C1932   1.479       .  S
C1181      C2345   1.469       .  S
In1184     O1186   2.215       .  S
In1184     O1187   2.271       .  S
In1184     O1195   2.264       .  S
In1184     O1189   2.241       .  S
In1184     O1191   2.252       .  S
In1184     O1192   2.250       .  S
In1184     O1193   2.226       .  S
In1184     O1196   2.244       .  S
C1185      O1191   1.262       .  A
C1185      O1193   1.259       .  A
C1185      C3755   1.474       .  S
O1186      C1194   1.258       .  A
O1187      C1194   1.263       .  A
C1188      O1195   1.262       .  A
C1188      O1189   1.257       .  A
C1188      C1925   1.482       .  S
C1190      O1192   1.260       .  A
C1190      O1196   1.261       .  A
C1190      C1912   1.479       .  S
C1194      C1935   1.478       .  S
In1197     O1199   2.221       .  S
In1197     O1200   2.269       .  S
In1197     O1208   2.250       .  S
In1197     O1202   2.221       .  S
In1197     O1204   2.230       .  S
In1197     O1205   2.271       .  S
In1197     O1206   2.238       .  S
In1197     O1209   2.224       .  S
C1198      O1204   1.261       .  A
C1198      O1206   1.264       .  A
C1198      C2965   1.472       .  S
O1199      C1207   1.257       .  A
O1200      C1207   1.264       .  A
C1201      O1208   1.260       .  A
C1201      O1202   1.257       .  A
C1201      C1892   1.472       .  S
C1203      O1205   1.264       .  A
C1203      O1209   1.258       .  A
C1203      C1905   1.479       .  S
C1207      C2205   1.479       .  S
In1210     O1212   2.230       .  S
In1210     O1213   2.264       .  S
In1210     O1221   2.279       .  S
In1210     O1215   2.235       .  S
In1210     O1217   2.253       .  S
In1210     O1218   2.272       .  S
In1210     O1219   2.226       .  S
In1210     O1222   2.223       .  S
C1211      O1217   1.262       .  A
C1211      O1219   1.260       .  A
C1211      C3505   1.475       .  S
O1212      C1220   1.260       .  A
O1213      C1220   1.263       .  A
C1214      O1221   1.261       .  A
C1214      O1215   1.254       .  A
C1214      C1882   1.481       .  S
C1216      O1218   1.263       .  A
C1216      O1222   1.258       .  A
C1216      C1872   1.481       .  S
C1220      C1902   1.482       .  S
In1223     O1225   2.229       .  S
In1223     O1226   2.271       .  S
In1223     O1234   2.243       .  S
In1223     O1228   2.221       .  S
In1223     O1230   2.237       .  S
In1223     O1231   2.258       .  S
In1223     O1232   2.239       .  S
In1223     O1235   2.224       .  S
C1224      O1230   1.259       .  A
C1224      O1232   1.261       .  A
C1224      C3125   1.466       .  S
O1225      C1233   1.256       .  A
O1226      C1233   1.263       .  A
C1227      O1234   1.261       .  A
C1227      O1228   1.259       .  A
C1227      C1895   1.469       .  S
C1229      O1231   1.266       .  A
C1229      O1235   1.261       .  A
C1229      C2385   1.479       .  S
C1233      C1865   1.481       .  S
In1236     O1238   2.241       .  S
In1236     O1239   2.233       .  S
In1236     O1247   2.268       .  S
In1236     O1241   2.257       .  S
In1236     O1243   2.258       .  S
In1236     O1244   2.259       .  S
In1236     O1245   2.233       .  S
In1236     O1248   2.245       .  S
C1237      O1243   1.260       .  A
C1237      O1245   1.256       .  A
C1237      C3825   1.470       .  S
O1238      C1246   1.265       .  A
O1239      C1246   1.263       .  A
C1240      O1247   1.259       .  A
C1240      O1241   1.257       .  A
C1240      C1852   1.484       .  S
C1242      O1244   1.259       .  A
C1242      O1248   1.258       .  A
C1242      C1862   1.476       .  S
C1246      C1842   1.478       .  S
In1249     O1251   2.248       .  S
In1249     O1252   2.254       .  S
In1249     O1260   2.251   1_565  S
In1249     O1254   2.253   1_565  S
In1249     O1256   2.248   1_565  S
In1249     O1257   2.261       .  S
In1249     O1258   2.239       .  S
In1249     O1261   2.260   1_565  S
C1250      O1256   1.262   1_565  A
C1250      O1258   1.261       .  A
C1250      C1822   1.480       .  S
O1251      C1259   1.259       .  A
O1252      C1259   1.262       .  A
C1253      O1260   1.262       .  A
C1253      O1254   1.260       .  A
C1253      C1952   1.484       .  S
C1255      O1257   1.261       .  A
C1255      O1261   1.260   1_565  A
C1255      C1832   1.488       .  S
C1259      C2092   1.483       .  S
In1262     O1264   2.245   1_565  S
In1262     O1265   2.262   1_565  S
In1262     O1273   2.266       .  S
In1262     O1267   2.235       .  S
In1262     O1269   2.247       .  S
In1262     O1270   2.264   1_565  S
In1262     O1271   2.259   1_565  S
In1262     O1274   2.253       .  S
C1263      O1269   1.257       .  A
C1263      O1271   1.258   1_565  A
C1263      C1825   1.479       .  S
O1264      C1272   1.258       .  A
O1265      C1272   1.262       .  A
C1266      O1273   1.264       .  A
C1266      O1267   1.259       .  A
C1266      C2065   1.478       .  S
C1268      O1270   1.262   1_565  A
C1268      O1274   1.261       .  A
C1268      C1812   1.487       .  S
C1272      C1922   1.482       .  S
In1275     O1277   2.247   1_565  S
In1275     O1278   2.256   1_565  S
In1275     O1286   2.255       .  S
In1275     O1280   2.253       .  S
In1275     O1282   2.254       .  S
In1275     O1283   2.260   1_565  S
In1275     O1284   2.239   1_565  S
In1275     O1287   2.259       .  S
C1276      O1282   1.261       .  A
C1276      O1284   1.259   1_565  A
C1276      C1802   1.480       .  S
O1277      C1285   1.258       .  A
O1278      C1285   1.262       .  A
C1279      O1286   1.262       .  A
C1279      O1280   1.260       .  A
C1279      C2025   1.484       .  S
C1281      O1283   1.262   1_565  A
C1281      O1287   1.261       .  A
C1281      C1835   1.487       .  S
C1285      C1885   1.483       .  S
In1288     O1290   2.253       .  S
In1288     O1291   2.251   1_565  S
In1288     O1299   2.275   1_565  S
In1288     O1293   2.254       .  S
In1288     O1295   2.246       .  S
In1288     O1296   2.258   1_565  S
In1288     O1297   2.245       .  S
In1288     O1300   2.254   1_565  S
C1289      O1295   1.264       .  A
C1289      O1297   1.262       .  A
C1289      C1995   1.479       .  S
O1290      C1298   1.258       .  A
O1291      C1298   1.259   1_545  A
C1292      O1299   1.261   1_565  A
C1292      O1293   1.258       .  A
C1292      C1815   1.488       .  S
C1294      O1296   1.260       .  A
C1294      O1300   1.260       .  A
C1294      C1855   1.478       .  S
C1298      C1805   1.480       .  S
In1301     O1303   2.235       .  S
In1301     O1304   2.267       .  S
In1301     O1312   2.248       .  S
In1301     O1306   2.220       .  S
In1301     O1308   2.248       .  S
In1301     O1309   2.243       .  S
In1301     O1310   2.243       .  S
In1301     O1313   2.256       .  S
C1302      O1308   1.258       .  A
C1302      O1310   1.258       .  A
C1302      C3705   1.473       .  S
O1303      C1311   1.257       .  A
O1304      C1311   1.262       .  A
C1305      O1312   1.264       .  A
C1305      O1306   1.260       .  A
C1305      C1782   1.475       .  S
C1307      O1309   1.262       .  A
C1307      O1313   1.261       .  A
C1307      C1792   1.482       .  S
C1311      C1915   1.478       .  S
In1314     O1316   2.274       .  S
In1314     O1317   2.228       .  S
In1314     O1325   2.270       .  S
In1314     O1319   2.242       .  S
In1314     O1321   2.256       .  S
In1314     O1322   2.265       .  S
In1314     O1323   2.239       .  S
In1314     O1326   2.240       .  S
C1315      O1321   1.259       .  A
C1315      O1323   1.256       .  A
C1315      C2685   1.474       .  S
O1316      C1324   1.265       .  A
O1317      C1324   1.259       .  A
C1318      O1325   1.263       .  A
C1318      O1319   1.258       .  A
C1318      C1772   1.484       .  S
C1320      O1322   1.260       .  A
C1320      O1326   1.258       .  A
C1320      C2365   1.478       .  S
C1324      C1795   1.483       .  S
In1327     O1329   2.236       .  S
In1327     O1330   2.256       .  S
In1327     O1338   2.246       .  S
In1327     O1332   2.228       .  S
In1327     O1334   2.236       .  S
In1327     O1335   2.269       .  S
In1327     O1336   2.237       .  S
In1327     O1339   2.222       .  S
C1328      O1334   1.262       .  A
C1328      O1336   1.263       .  A
C1328      C3835   1.477       .  S
O1329      C1337   1.259       .  A
O1330      C1337   1.263       .  A
C1331      O1338   1.261       .  A
C1331      O1332   1.260       .  A
C1331      C1785   1.475       .  S
C1333      O1335   1.264       .  A
C1333      O1339   1.258       .  A
C1333      C2055   1.477       .  S
C1337      C1762   1.480       .  S
In1340     O1342   2.242       .  S
In1340     O1343   2.248       .  S
In1340     O1351   2.265       .  S
In1340     O1345   2.248       .  S
In1340     O1347   2.252       .  S
In1340     O1348   2.242       .  S
In1340     O1349   2.234       .  S
In1340     O1352   2.251       .  S
C1341      O1347   1.261       .  A
C1341      O1349   1.258       .  A
C1341      C2865   1.475       .  S
O1342      C1350   1.261       .  A
O1343      C1350   1.260       .  A
C1344      O1351   1.260       .  A
C1344      O1345   1.257       .  A
C1344      C1752   1.484       .  S
C1346      O1348   1.260       .  A
C1346      O1352   1.262       .  A
C1346      C1765   1.480       .  S
C1350      C2455   1.479       .  S
In1353     O1355   2.244       .  S
In1353     O1356   2.245       .  S
In1353     O1364   2.236       .  S
In1353     O1358   2.216       .  S
In1353     O1360   2.246       .  S
In1353     O1361   2.252       .  S
In1353     O1362   2.231       .  S
In1353     O1365   2.229       .  S
C1354      O1360   1.260       .  A
C1354      O1362   1.259       .  A
C1354      C3405   1.473       .  S
O1355      C1363   1.258       .  A
O1356      C1363   1.262       .  A
C1357      O1364   1.263       .  A
C1357      O1358   1.262       .  A
C1357      C1732   1.472       .  S
C1359      O1361   1.264       .  A
C1359      O1365   1.260       .  A
C1359      C1945   1.478       .  S
C1363      C1745   1.477       .  S
In1366     O1368   2.241       .  S
In1366     O1369   2.250       .  S
In1366     O1377   2.266       .  S
In1366     O1371   2.241       .  S
In1366     O1373   2.252       .  S
In1366     O1374   2.222       .  S
In1366     O1375   2.235       .  S
In1366     O1378   2.271       .  S
C1367      O1373   1.260       .  A
C1367      O1375   1.257       .  A
C1367      C2735   1.474       .  S
O1368      C1376   1.259       .  A
O1369      C1376   1.259       .  A
C1370      O1377   1.263       .  A
C1370      O1371   1.258       .  A
C1370      C1722   1.483       .  S
C1372      O1374   1.256       .  A
C1372      O1378   1.263       .  A
C1372      C1742   1.476       .  S
C1376      C2185   1.477       .  S
In1379     O1381   2.217       .  S
In1379     O1382   2.284       .  S
In1379     O1390   2.249       .  S
In1379     O1384   2.221       .  S
In1379     O1386   2.227       .  S
In1379     O1387   2.260       .  S
In1379     O1388   2.235       .  S
In1379     O1391   2.234       .  S
C1380      O1386   1.263       .  A
C1380      O1388   1.265       .  A
C1380      C3575   1.475       .  S
O1381      C1389   1.254       .  A
O1382      C1389   1.262       .  A
C1383      O1390   1.260       .  A
C1383      O1384   1.257       .  A
C1383      C1735   1.472       .  S
C1385      O1387   1.263       .  A
C1385      O1391   1.258       .  A
C1385      C1715   1.478       .  S
C1389      C2085   1.476       .  S
In1392     O1394   2.241       .  S
In1392     O1395   2.244       .  S
In1392     O1403   2.276       .  S
In1392     O1397   2.236       .  S
In1392     O1399   2.246       .  S
In1392     O1400   2.260       .  S
In1392     O1401   2.245       .  S
In1392     O1404   2.251       .  S
C1393      O1399   1.259       .  A
C1393      O1401   1.258       .  A
C1393      C2915   1.475       .  S
O1394      C1402   1.263       .  A
O1395      C1402   1.262       .  A
C1396      O1403   1.262       .  A
C1396      O1397   1.256       .  A
C1396      C1702   1.481       .  S
C1398      O1400   1.258       .  A
C1398      O1404   1.258       .  A
C1398      C2275   1.481       .  S
C1402      C1712   1.480       .  S
In1405     O1407   2.225       .  S
In1405     O1408   2.271       .  S
In1405     O1416   2.242       .  S
In1405     O1410   2.225       .  S
In1405     O1412   2.234       .  S
In1405     O1413   2.258       .  S
In1405     O1414   2.233       .  S
In1405     O1417   2.228       .  S
C1406      O1412   1.262       .  A
C1406      O1414   1.263       .  A
C1406      C3765   1.476       .  S
O1407      C1415   1.257       .  A
O1408      C1415   1.264       .  A
C1409      O1416   1.261       .  A
C1409      O1410   1.260       .  A
C1409      C1682   1.472       .  S
C1411      O1413   1.265       .  A
C1411      O1417   1.259       .  A
C1411      C1845   1.481       .  S
C1415      C1695   1.479       .  S
In1418     O1420   2.255       .  S
In1418     O1421   2.240       .  S
In1418     O1429   2.269       .  S
In1418     O1423   2.247       .  S
In1418     O1425   2.256       .  S
In1418     O1426   2.263       .  S
In1418     O1427   2.229       .  S
In1418     O1430   2.236       .  S
C1419      O1425   1.261       .  A
C1419      O1427   1.258       .  A
C1419      C2545   1.476       .  S
O1420      C1428   1.261       .  A
O1421      C1428   1.258       .  A
C1422      O1429   1.262       .  A
C1422      O1423   1.259       .  A
C1422      C1675   1.487       .  S
C1424      O1426   1.261       .  A
C1424      O1430   1.258       .  A
C1424      C1692   1.482       .  S
C1428      C2415   1.478       .  S
In1431     O1433   2.226       .  S
In1431     O1434   2.265       .  S
In1431     O1442   2.253       .  S
In1431     O1436   2.220       .  S
In1431     O1438   2.227       .  S
In1431     O1439   2.264       .  S
In1431     O1440   2.246       .  S
In1431     O1443   2.231       .  S
C1432      O1438   1.260       .  A
C1432      O1440   1.263       .  A
C1432      C3895   1.475       .  S
O1433      C1441   1.258       .  A
O1434      C1441   1.264       .  A
C1435      O1442   1.261       .  A
C1435      O1436   1.257       .  A
C1435      C1685   1.473       .  S
C1437      O1439   1.263       .  A
C1437      O1443   1.257       .  A
C1437      C1662   1.481       .  S
C1441      C1985   1.481       .  S
In1444     O1446   2.231       .  S
In1444     O1447   2.250       .  S
In1444     O1455   2.266       .  S
In1444     O1449   2.238       .  S
In1444     O1451   2.256       .  S
In1444     O1452   2.247       .  S
In1444     O1453   2.236       .  S
In1444     O1456   2.261       .  S
C1445      O1451   1.260       .  A
C1445      O1453   1.256       .  A
C1445      C2775   1.475       .  S
O1446      C1454   1.263       .  A
O1447      C1454   1.264       .  A
C1448      O1455   1.263       .  A
C1448      O1449   1.259       .  A
C1448      C1652   1.481       .  S
C1450      O1452   1.256       .  A
C1450      O1456   1.260       .  A
C1450      C2505   1.479       .  S
C1454      C1665   1.481       .  S
In1457     O1459   2.226       .  S
In1457     O1460   2.273       .  S
In1457     O1468   2.254       .  S
In1457     O1462   2.216       .  S
In1457     O1464   2.227       .  S
In1457     O1465   2.257       .  S
In1457     O1466   2.247       .  S
In1457     O1469   2.238       .  S
C1458      O1464   1.259       .  A
C1458      O1466   1.263       .  A
C1458      C3455   1.476       .  S
O1459      C1467   1.258       .  A
O1460      C1467   1.262       .  A
C1461      O1468   1.262       .  A
C1461      O1462   1.257       .  A
C1461      C1632   1.473       .  S
C1463      O1465   1.262       .  A
C1463      O1469   1.258       .  A
C1463      C1645   1.480       .  S
C1467      C1875   1.481       .  S
In1470     O1472   2.252       .  S
In1470     O1473   2.246       .  S
In1470     O1481   2.268       .  S
In1470     O1475   2.243       .  S
In1470     O1477   2.247       .  S
In1470     O1478   2.257       .  S
In1470     O1479   2.242       .  S
In1470     O1482   2.233       .  S
C1471      O1477   1.260       .  A
C1471      O1479   1.259       .  A
C1471      C2582   1.476       .  S
O1472      C1480   1.261       .  A
O1473      C1480   1.260       .  A
C1474      O1481   1.261       .  A
C1474      O1475   1.257       .  A
C1474      C1625   1.483       .  S
C1476      O1478   1.261       .  A
C1476      O1482   1.260       .  A
C1476      C2235   1.479       .  S
C1480      C1642   1.481       .  S
In1483     O1485   2.222       .  S
In1483     O1486   2.270       .  S
In1483     O1494   2.242       .  S
In1483     O1488   2.224       .  S
In1483     O1490   2.232       .  S
In1483     O1491   2.256       .  S
In1483     O1492   2.231       .  S
In1483     O1495   2.228       .  S
C1484      O1490   1.263       .  A
C1484      O1492   1.263       .  A
C1484      C3635   1.474       .  S
O1485      C1493   1.257       .  A
O1486      C1493   1.263       .  A
C1487      O1494   1.260       .  A
C1487      O1488   1.260       .  A
C1487      C1635   1.472       .  S
C1489      O1491   1.265       .  A
C1489      O1495   1.259       .  A
C1489      C2015   1.479       .  S
C1493      C1615   1.475       .  S
In1496     O1498   2.234       .  S
In1496     O1499   2.262       .  S
In1496     O1507   2.272       .  S
In1496     O1501   2.239       .  S
In1496     O1503   2.240       .  S
In1496     O1504   2.260       .  S
In1496     O1505   2.233       .  S
In1496     O1508   2.230       .  S
C1497      O1503   1.262       .  A
C1497      O1505   1.261       .  A
C1497      C2822   1.473       .  S
O1498      C1506   1.258       .  A
O1499      C1506   1.260       .  A
C1500      O1507   1.261       .  A
C1500      O1501   1.255       .  A
C1500      C1605   1.482       .  S
C1502      O1504   1.261       .  A
C1502      O1508   1.259       .  A
C1502      C1612   1.477       .  S
C1506      C2325   1.479       .  S
In1509     O1511   2.249       .  S
In1509     O1512   2.259       .  S
In1509     O1520   2.266   1_455  S
In1509     O1514   2.241   1_455  S
In1509     O1516   2.252   1_455  S
In1509     O1517   2.257       .  S
In1509     O1518   2.249       .  S
In1509     O1521   2.264   1_455  S
C1510      O1516   1.258   1_455  A
C1510      O1518   1.259       .  A
C1510      C1592   1.479       .  S
O1511      C1519   1.258       .  A
O1512      C1519   1.262       .  A
C1513      O1520   1.263       .  A
C1513      O1514   1.258       .  A
C1513      C1725   1.480       .  S
C1515      O1517   1.262       .  A
C1515      O1521   1.263   1_455  A
C1515      C1582   1.491       .  S
C1519      C1622   1.478       .  S
In1522     O1524   2.252   1_455  S
In1522     O1525   2.259   1_455  S
In1522     O1533   2.270       .  S
In1522     O1527   2.248       .  S
In1522     O1529   2.232       .  S
In1522     O1530   2.280   1_455  S
In1522     O1531   2.250   1_455  S
In1522     O1534   2.247       .  S
C1523      O1529   1.262       .  A
C1523      O1531   1.265   1_455  A
C1523      C1595   1.479       .  S
O1524      C1532   1.258       .  A
O1525      C1532   1.261       .  A
C1526      O1533   1.259       .  A
C1526      O1527   1.254       .  A
C1526      C1602   1.482       .  S
C1528      O1530   1.262   1_455  A
C1528      O1534   1.259       .  A
C1528      C1572   1.486       .  S
C1532      C1705   1.483       .  S
In1535     O1537   2.245   1_455  S
In1535     O1538   2.259       .  S
In1535     O1546   2.262       .  S
In1535     O1540   2.259   1_455  S
In1535     O1542   2.264   1_455  S
In1535     O1543   2.250       .  S
In1535     O1544   2.247   1_455  S
In1535     O1547   2.267       .  S
C1536      O1542   1.263       .  A
C1536      O1544   1.258       .  A
C1536      C1775   1.482       .  S
O1537      C1545   1.258   1_655  A
O1538      C1545   1.260       .  A
C1539      O1546   1.263       .  A
C1539      O1540   1.262   1_455  A
C1539      C1585   1.490       .  S
C1541      O1543   1.258       .  A
C1541      O1547   1.262       .  A
C1541      C1672   1.483       .  S
C1545      C1562   1.480       .  S
In1548     O1550   2.246       .  S
In1548     O1551   2.260       .  S
In1548     O1559   2.272   1_455  S
In1548     O1553   2.252   1_455  S
In1548     O1555   2.243   1_455  S
In1548     O1556   2.290       .  S
In1548     O1557   2.242       .  S
In1548     O1560   2.242   1_455  S
C1549      O1555   1.265   1_455  A
C1549      O1557   1.263       .  A
C1549      C1565   1.477       .  S
O1550      C1558   1.259       .  A
O1551      C1558   1.262       .  A
C1552      O1559   1.259       .  A
C1552      O1553   1.255       .  A
C1552      C1755   1.482       .  S
C1554      O1556   1.263       .  A
C1554      O1560   1.255   1_455  A
C1554      C1575   1.484       .  S
C1558      C1655   1.484       .  S
C1561      C1562   1.405       .  A
C1561      C1566   1.400   1_545  A
C1561      H1568   1.083       .  S
C1562      C1563   1.408   1_455  A
C1563      C1564   1.398   1_545  A
C1563      F1570   1.357       .  S
C1564      C1565   1.403   1_655  A
C1564      H1569   1.083       .  S
C1565      C1566   1.407       .  A
C1566      F1567   1.357       .  S
C1571      C1572   1.404       .  A
C1571      C1576   1.397       .  A
C1571      H1578   1.083       .  S
C1572      C1573   1.409       .  A
C1573      C1574   1.407       .  A
C1573      F1580   1.357   1_455  S
C1574      C1575   1.406       .  A
C1574      H1579   1.082   1_455  S
C1575      C1576   1.408       .  A
C1576      F1577   1.358       .  S
C1581      C1582   1.406   1_655  A
C1581      C1586   1.403       .  A
C1581      H1588   1.082       .  S
C1582      C1583   1.410       .  A
C1583      C1584   1.403       .  A
C1583      F1590   1.357       .  S
C1584      C1585   1.406       .  A
C1584      H1589   1.082       .  S
C1585      C1586   1.410   1_455  A
C1586      F1587   1.357       .  S
C1591      C1592   1.404       .  A
C1591      C1596   1.397   1_545  A
C1591      H1598   1.083       .  S
C1592      C1593   1.408   1_455  A
C1593      C1594   1.399   1_545  A
C1593      F1600   1.357       .  S
C1594      C1595   1.404   1_655  A
C1594      H1599   1.083       .  S
C1595      C1596   1.408       .  A
C1596      F1597   1.358       .  S
C1601      C1602   1.403       .  A
C1601      C1606   1.398       .  A
C1601      H1608   1.083       .  S
C1602      C1603   1.410       .  A
C1603      C1604   1.400       .  A
C1603      F1610   1.357       .  S
C1604      C1605   1.403       .  A
C1604      H1609   1.083       .  S
C1605      C1606   1.410       .  A
C1606      F1607   1.357       .  S
C1611      C1612   1.406       .  A
C1611      C1616   1.403       .  A
C1611      H1618   1.082       .  S
C1612      C1613   1.407       .  A
C1613      C1614   1.393       .  A
C1613      F1620   1.358       .  S
C1614      C1615   1.403       .  A
C1614      H1619   1.083       .  S
C1615      C1616   1.406       .  A
C1616      F1617   1.357       .  S
C1621      C1622   1.405       .  A
C1621      C1626   1.401       .  A
C1621      H1628   1.083       .  S
C1622      C1623   1.404       .  A
C1623      C1624   1.399       .  A
C1623      F1630   1.357       .  S
C1624      C1625   1.407       .  A
C1624      H1629   1.082       .  S
C1625      C1626   1.408       .  A
C1626      F1627   1.357       .  S
C1631      C1632   1.404   1_565  A
C1631      C1636   1.398       .  A
C1631      H1638   1.082   1_565  S
C1632      C1633   1.408       .  A
C1633      C1634   1.392   1_545  A
C1633      F1640   1.358       .  S
C1634      C1635   1.402       .  A
C1634      H1639   1.083       .  S
C1635      C1636   1.407       .  A
C1636      F1637   1.357       .  S
C1641      C1642   1.406       .  A
C1641      C1646   1.399       .  A
C1641      H1648   1.082       .  S
C1642      C1643   1.407       .  A
C1643      C1644   1.398       .  A
C1643      F1650   1.357       .  S
C1644      C1645   1.406       .  A
C1644      H1649   1.083       .  S
C1645      C1646   1.406       .  A
C1646      F1647   1.357       .  S
C1651      C1652   1.406       .  A
C1651      C1656   1.399       .  A
C1651      H1658   1.083       .  S
C1652      C1653   1.406       .  A
C1653      C1654   1.401       .  A
C1653      F1660   1.357       .  S
C1654      C1655   1.408       .  A
C1654      H1659   1.083       .  S
C1655      C1656   1.407       .  A
C1656      F1657   1.357       .  S
C1661      C1662   1.405       .  A
C1661      C1666   1.401       .  A
C1661      H1668   1.082       .  S
C1662      C1663   1.409       .  A
C1663      C1664   1.396       .  A
C1663      F1670   1.358       .  S
C1664      C1665   1.404       .  A
C1664      H1669   1.083       .  S
C1665      C1666   1.409       .  A
C1666      F1667   1.357       .  S
C1671      C1672   1.406       .  A
C1671      C1676   1.402       .  A
C1671      H1678   1.083       .  S
C1672      C1673   1.406       .  A
C1673      C1674   1.401       .  A
C1673      F1680   1.357       .  S
C1674      C1675   1.408       .  A
C1674      H1679   1.083       .  S
C1675      C1676   1.408       .  A
C1676      F1677   1.357       .  S
C1681      C1682   1.402       .  A
C1681      C1686   1.392   1_545  A
C1681      H1688   1.083       .  S
C1682      C1683   1.407       .  A
C1683      C1684   1.398   1_545  A
C1683      F1690   1.357       .  S
C1684      C1685   1.404       .  A
C1684      H1689   1.083       .  S
C1685      C1686   1.407       .  A
C1686      F1687   1.358       .  S
C1691      C1692   1.408       .  A
C1691      C1696   1.403       .  A
C1691      H1698   1.083       .  S
C1692      C1693   1.408       .  A
C1693      C1694   1.394       .  A
C1693      F1700   1.358       .  S
C1694      C1695   1.403       .  A
C1694      H1699   1.083       .  S
C1695      C1696   1.406       .  A
C1696      F1697   1.357       .  S
C1701      C1702   1.406       .  A
C1701      C1706   1.398       .  A
C1701      H1708   1.083       .  S
C1702      C1703   1.405       .  A
C1703      C1704   1.402       .  A
C1703      F1710   1.357       .  S
C1704      C1705   1.408       .  A
C1704      H1709   1.083       .  S
C1705      C1706   1.407       .  A
C1706      F1707   1.357       .  S
C1711      C1712   1.404       .  A
C1711      C1716   1.397       .  A
C1711      H1718   1.083       .  S
C1712      C1713   1.409       .  A
C1713      C1714   1.400       .  A
C1713      F1720   1.357       .  S
C1714      C1715   1.403       .  A
C1714      H1719   1.083       .  S
C1715      C1716   1.408       .  A
C1716      F1717   1.358       .  S
C1721      C1722   1.404       .  A
C1721      C1726   1.400       .  A
C1721      H1728   1.083       .  S
C1722      C1723   1.411       .  A
C1723      C1724   1.400       .  A
C1723      F1730   1.357       .  S
C1724      C1725   1.402       .  A
C1724      H1729   1.083       .  S
C1725      C1726   1.409       .  A
C1726      F1727   1.358       .  S
C1731      C1732   1.403       .  A
C1731      C1736   1.392   1_545  A
C1731      H1738   1.083       .  S
C1732      C1733   1.407       .  A
C1733      C1734   1.397   1_545  A
C1733      F1740   1.357       .  S
C1734      C1735   1.404       .  A
C1734      H1739   1.083       .  S
C1735      C1736   1.407       .  A
C1736      F1737   1.358       .  S
C1741      C1742   1.403       .  A
C1741      C1746   1.401       .  A
C1741      H1748   1.082       .  S
C1742      C1743   1.408       .  A
C1743      C1744   1.394       .  A
C1743      F1750   1.358       .  S
C1744      C1745   1.401       .  A
C1744      H1749   1.083       .  S
C1745      C1746   1.410       .  A
C1746      F1747   1.357       .  S
C1751      C1752   1.407       .  A
C1751      C1756   1.400       .  A
C1751      H1758   1.082       .  S
C1752      C1753   1.407       .  A
C1753      C1754   1.400       .  A
C1753      F1760   1.357       .  S
C1754      C1755   1.406       .  A
C1754      H1759   1.083       .  S
C1755      C1756   1.406       .  A
C1756      F1757   1.357       .  S
C1761      C1762   1.406       .  A
C1761      C1766   1.398       .  A
C1761      H1768   1.082       .  S
C1762      C1763   1.406       .  A
C1763      C1764   1.399       .  A
C1763      F1770   1.357       .  S
C1764      C1765   1.406       .  A
C1764      H1769   1.082       .  S
C1765      C1766   1.406       .  A
C1766      F1767   1.357       .  S
C1771      C1772   1.407       .  A
C1771      C1776   1.400       .  A
C1771      H1778   1.082       .  S
C1772      C1773   1.407       .  A
C1773      C1774   1.402       .  A
C1773      F1780   1.357       .  S
C1774      C1775   1.407       .  A
C1774      H1779   1.082       .  S
C1775      C1776   1.405       .  A
C1776      F1777   1.357       .  S
C1781      C1782   1.404   1_565  A
C1781      C1786   1.399       .  A
C1781      H1788   1.083   1_565  S
C1782      C1783   1.408       .  A
C1783      C1784   1.393   1_545  A
C1783      F1790   1.358       .  S
C1784      C1785   1.403       .  A
C1784      H1789   1.083       .  S
C1785      C1786   1.407       .  A
C1786      F1787   1.357       .  S
C1791      C1792   1.403       .  A
C1791      C1796   1.396       .  A
C1791      H1798   1.083       .  S
C1792      C1793   1.410       .  A
C1793      C1794   1.404       .  A
C1793      F1800   1.357       .  S
C1794      C1795   1.405       .  A
C1794      H1799   1.083       .  S
C1795      C1796   1.409       .  A
C1796      F1797   1.358       .  S
C1801      C1802   1.405       .  A
C1801      C1806   1.399   1_554  A
C1801      H1808   1.083       .  S
C1802      C1803   1.408   1_565  A
C1803      C1804   1.397   1_554  A
C1803      F1810   1.357       .  S
C1804      C1805   1.404   1_545  A
C1804      H1809   1.082       .  S
C1805      C1806   1.408       .  A
C1806      F1807   1.357       .  S
C1811      C1812   1.405       .  A
C1811      C1816   1.400       .  A
C1811      H1818   1.082       .  S
C1812      C1813   1.409   1_565  A
C1813      C1814   1.404       .  A
C1813      F1820   1.357       .  S
C1814      C1815   1.406   1_545  A
C1814      H1819   1.083       .  S
C1815      C1816   1.409       .  A
C1816      F1817   1.357       .  S
C1821      C1822   1.405   1_545  A
C1821      C1826   1.399   1_554  A
C1821      H1828   1.083       .  S
C1822      C1823   1.408       .  A
C1823      C1824   1.397   1_554  A
C1823      F1830   1.357       .  S
C1824      C1825   1.404       .  A
C1824      H1829   1.083       .  S
C1825      C1826   1.408   1_565  A
C1826      F1827   1.357       .  S
C1831      C1832   1.406       .  A
C1831      C1836   1.402       .  A
C1831      H1838   1.083       .  S
C1832      C1833   1.409   1_565  A
C1833      C1834   1.402       .  A
C1833      F1840   1.357       .  S
C1834      C1835   1.406   1_545  A
C1834      H1839   1.083       .  S
C1835      C1836   1.409       .  A
C1836      F1837   1.357       .  S
C1841      C1842   1.402       .  A
C1841      C1846   1.398       .  A
C1841      H1848   1.083       .  S
C1842      C1843   1.408       .  A
C1843      C1844   1.399       .  A
C1843      F1850   1.357       .  S
C1844      C1845   1.404       .  A
C1844      H1849   1.082       .  S
C1845      C1846   1.410       .  A
C1846      F1847   1.357       .  S
C1851      C1852   1.405       .  A
C1851      C1856   1.400       .  A
C1851      H1858   1.082       .  S
C1852      C1853   1.409       .  A
C1853      C1854   1.401       .  A
C1853      F1860   1.357       .  S
C1854      C1855   1.403       .  A
C1854      H1859   1.083       .  S
C1855      C1856   1.406       .  A
C1856      F1857   1.358       .  S
C1861      C1862   1.401       .  A
C1861      C1866   1.397       .  A
C1861      H1868   1.083       .  S
C1862      C1863   1.408       .  A
C1863      C1864   1.401       .  A
C1863      F1870   1.357       .  S
C1864      C1865   1.405       .  A
C1864      H1869   1.082       .  S
C1865      C1866   1.410       .  A
C1866      F1867   1.358       .  S
C1871      C1872   1.407       .  A
C1871      C1876   1.404       .  A
C1871      H1878   1.082       .  S
C1872      C1873   1.408       .  A
C1873      C1874   1.393       .  A
C1873      F1880   1.358       .  S
C1874      C1875   1.403       .  A
C1874      H1879   1.082       .  S
C1875      C1876   1.408       .  A
C1876      F1877   1.357       .  S
C1881      C1882   1.404       .  A
C1881      C1886   1.402       .  A
C1881      H1888   1.082       .  S
C1882      C1883   1.409       .  A
C1883      C1884   1.397       .  A
C1883      F1890   1.358       .  S
C1884      C1885   1.403       .  A
C1884      H1889   1.082       .  S
C1885      C1886   1.410       .  A
C1886      F1887   1.357       .  S
C1891      C1892   1.404       .  A
C1891      C1896   1.397   1_554  A
C1891      H1898   1.083       .  S
C1892      C1893   1.407       .  A
C1893      C1894   1.392   1_554  A
C1893      F1900   1.358       .  S
C1894      C1895   1.402       .  A
C1894      H1899   1.083       .  S
C1895      C1896   1.406       .  A
C1896      F1897   1.357       .  S
C1901      C1902   1.407       .  A
C1901      C1906   1.404       .  A
C1901      H1908   1.082       .  S
C1902      C1903   1.408       .  A
C1903      C1904   1.394       .  A
C1903      F1910   1.358       .  S
C1904      C1905   1.403       .  A
C1904      H1909   1.083       .  S
C1905      C1906   1.407       .  A
C1906      F1907   1.357       .  S
C1911      C1912   1.403       .  A
C1911      C1916   1.397       .  A
C1911      H1918   1.083       .  S
C1912      C1913   1.409       .  A
C1913      C1914   1.401       .  A
C1913      F1920   1.357       .  S
C1914      C1915   1.404       .  A
C1914      H1919   1.083       .  S
C1915      C1916   1.407       .  A
C1916      F1917   1.358       .  S
C1921      C1922   1.407       .  A
C1921      C1926   1.399       .  A
C1921      H1928   1.083       .  S
C1922      C1923   1.406       .  A
C1923      C1924   1.399       .  A
C1923      F1930   1.357       .  S
C1924      C1925   1.407       .  A
C1924      H1929   1.083       .  S
C1925      C1926   1.406       .  A
C1926      F1927   1.357       .  S
C1931      C1932   1.403       .  A
C1931      C1936   1.389       .  A
C1931      H1938   1.083       .  S
C1932      C1933   1.408       .  A
C1933      C1934   1.406       .  A
C1933      F1940   1.357       .  S
C1934      C1935   1.407       .  A
C1934      H1939   1.082       .  S
C1935      C1936   1.407       .  A
C1936      F1937   1.358       .  S
C1941      C1942   1.405       .  A
C1941      C1946   1.399       .  A
C1941      H1948   1.083       .  S
C1942      C1943   1.404       .  A
C1943      C1944   1.397       .  A
C1943      F1950   1.357       .  S
C1944      C1945   1.406       .  A
C1944      H1949   1.082       .  S
C1945      C1946   1.407       .  A
C1946      F1947   1.357       .  S
C1951      C1952   1.404       .  A
C1951      C1956   1.398       .  A
C1951      H1958   1.083       .  S
C1952      C1953   1.410       .  A
C1953      C1954   1.402       .  A
C1953      F1960   1.357       .  S
C1954      C1955   1.405       .  A
C1954      H1959   1.083       .  S
C1955      C1956   1.409       .  A
C1956      F1957   1.357       .  S
C1961      C1962   1.403       .  A
C1961      C1966   1.395   1_554  A
C1961      H1968   1.083       .  S
C1962      C1963   1.405       .  A
C1963      C1964   1.395   1_554  A
C1963      F1970   1.358       .  S
C1964      C1965   1.404       .  A
C1964      H1969   1.083       .  S
C1965      C1966   1.407       .  A
C1966      F1967   1.357       .  S
C1971      C1972   1.403       .  A
C1971      C1976   1.397       .  A
C1971      H1978   1.083       .  S
C1972      C1973   1.410       .  A
C1973      C1974   1.399       .  A
C1973      F1980   1.357       .  S
C1974      C1975   1.402       .  A
C1974      H1979   1.083       .  S
C1975      C1976   1.408       .  A
C1976      F1977   1.358       .  S
C1981      C1982   1.404       .  A
C1981      C1986   1.394       .  A
C1981      H1988   1.083       .  S
C1982      C1983   1.408       .  A
C1983      C1984   1.403       .  A
C1983      F1990   1.357       .  S
C1984      C1985   1.406       .  A
C1984      H1989   1.082       .  S
C1985      C1986   1.408       .  A
C1986      F1987   1.358       .  S
C1991      C1992   1.405       .  A
C1991      C1996   1.401       .  A
C1991      H1998   1.083       .  S
C1992      C1993   1.410       .  A
C1993      C1994   1.398       .  A
C1993      F2000   1.357       .  S
C1994      C1995   1.402       .  A
C1994      H1999   1.082       .  S
C1995      C1996   1.408       .  A
C1996      F1997   1.357       .  S
C2001      C2002   1.405       .  A
C2001      C2006   1.397       .  A
C2001      H2008   1.083       .  S
C2002      C2003   1.407       .  A
C2003      C2004   1.401       .  A
C2003      F2010   1.357       .  S
C2004      C2005   1.406       .  A
C2004      H2009   1.082       .  S
C2005      C2006   1.408       .  A
C2006      F2007   1.358       .  S
C2011      C2012   1.405       .  A
C2011      C2016   1.399       .  A
C2011      H2018   1.083       .  S
C2012      C2013   1.403       .  A
C2013      C2014   1.397       .  A
C2013      F2020   1.357       .  S
C2014      C2015   1.407       .  A
C2014      H2019   1.083       .  S
C2015      C2016   1.406       .  A
C2016      F2017   1.357       .  S
C2021      C2022   1.405       .  A
C2021      C2026   1.402       .  A
C2021      H2028   1.082       .  S
C2022      C2023   1.410       .  A
C2023      C2024   1.399       .  A
C2023      F2030   1.358       .  S
C2024      C2025   1.403       .  A
C2024      H2029   1.083       .  S
C2025      C2026   1.410       .  A
C2026      F2027   1.357       .  S
C2031      C2032   1.402       .  A
C2031      C2036   1.392   1_554  A
C2031      H2038   1.083       .  S
C2032      C2033   1.406       .  A
C2033      C2034   1.397   1_554  A
C2033      F2040   1.357       .  S
C2034      C2035   1.404       .  A
C2034      H2039   1.082       .  S
C2035      C2036   1.407       .  A
C2036      F2037   1.358       .  S
C2041      C2042   1.401       .  A
C2041      C2046   1.394       .  A
C2041      H2048   1.083       .  S
C2042      C2043   1.410       .  A
C2043      C2044   1.401       .  A
C2043      F2050   1.357       .  S
C2044      C2045   1.402       .  A
C2044      H2049   1.083       .  S
C2045      C2046   1.408       .  A
C2046      F2047   1.358       .  S
C2051      C2052   1.404       .  A
C2051      C2056   1.392       .  A
C2051      H2058   1.083       .  S
C2052      C2053   1.409       .  A
C2053      C2054   1.404       .  A
C2053      F2060   1.357       .  S
C2054      C2055   1.405       .  A
C2054      H2059   1.082       .  S
C2055      C2056   1.406       .  A
C2056      F2057   1.358       .  S
C2061      C2062   1.404       .  A
C2061      C2066   1.399       .  A
C2061      H2068   1.082       .  S
C2062      C2063   1.411       .  A
C2063      C2064   1.400       .  A
C2063      F2070   1.357       .  S
C2064      C2065   1.402       .  A
C2064      H2069   1.083       .  S
C2065      C2066   1.408       .  A
C2066      F2067   1.358       .  S
C2071      C2072   1.405       .  A
C2071      C2076   1.400       .  A
C2071      H2078   1.083       .  S
C2072      C2073   1.409       .  A
C2073      C2074   1.397       .  A
C2073      F2080   1.358       .  S
C2074      C2075   1.404       .  A
C2074      H2079   1.083       .  S
C2075      C2076   1.409       .  A
C2076      F2077   1.357       .  S
C2081      C2082   1.407       .  A
C2081      C2086   1.406       .  A
C2081      H2088   1.083       .  S
C2082      C2083   1.407       .  A
C2083      C2084   1.389       .  A
C2083      F2090   1.358       .  S
C2084      C2085   1.401       .  A
C2084      H2089   1.083       .  S
C2085      C2086   1.408       .  A
C2086      F2087   1.357       .  S
C2091      C2092   1.404       .  A
C2091      C2096   1.398       .  A
C2091      H2098   1.083       .  S
C2092      C2093   1.410       .  A
C2093      C2094   1.401       .  A
C2093      F2100   1.357       .  S
C2094      C2095   1.404       .  A
C2094      H2099   1.083       .  S
C2095      C2096   1.410       .  A
C2096      F2097   1.357       .  S
C2101      C2102   1.404       .  A
C2101      C2106   1.398   1_554  A
C2101      H2108   1.083       .  S
C2102      C2103   1.407       .  A
C2103      C2104   1.393   1_554  A
C2103      F2110   1.358       .  S
C2104      C2105   1.402       .  A
C2104      H2109   1.083       .  S
C2105      C2106   1.407       .  A
C2106      F2107   1.357       .  S
C2111      C2112   1.403       .  A
C2111      C2116   1.398       .  A
C2111      H2118   1.083       .  S
C2112      C2113   1.409       .  A
C2113      C2114   1.400       .  A
C2113      F2120   1.357       .  S
C2114      C2115   1.404       .  A
C2114      H2119   1.082       .  S
C2115      C2116   1.410       .  A
C2116      F2117   1.357       .  S
C2121      C2122   1.404       .  A
C2121      C2126   1.396   1_655  A
C2121      H2128   1.082       .  S
C2122      C2123   1.408   1_556  A
C2123      C2124   1.401   1_655  A
C2123      F2130   1.357       .  S
C2124      C2125   1.406   1_554  A
C2124      H2129   1.082       .  S
C2125      C2126   1.408       .  A
C2126      F2127   1.357       .  S
C2131      C2132   1.407   1_554  A
C2131      C2136   1.404       .  A
C2131      H2138   1.083       .  S
C2132      C2133   1.410       .  A
C2133      C2134   1.402       .  A
C2133      F2140   1.357       .  S
C2134      C2135   1.405       .  A
C2134      H2139   1.083       .  S
C2135      C2136   1.409   1_556  A
C2136      F2137   1.357       .  S
C2141      C2142   1.405       .  A
C2141      C2146   1.398   1_655  A
C2141      H2148   1.082       .  S
C2142      C2143   1.407   1_556  A
C2143      C2144   1.399   1_655  A
C2143      F2150   1.357       .  S
C2144      C2145   1.405   1_554  A
C2144      H2149   1.082       .  S
C2145      C2146   1.407       .  A
C2146      F2147   1.357       .  S
C2151      C2152   1.407       .  A
C2151      C2156   1.408       .  A
C2151      H2158   1.082       .  S
C2152      C2153   1.405       .  A
C2153      C2154   1.397       .  A
C2153      F2160   1.358   1_556  S
C2154      C2155   1.406       .  A
C2154      H2159   1.083       .  S
C2155      C2156   1.409       .  A
C2156      F2157   1.357       .  S
C2161      C2162   1.404       .  A
C2161      C2166   1.395       .  A
C2161      H2168   1.083       .  S
C2162      C2163   1.409       .  A
C2163      C2164   1.402       .  A
C2163      F2170   1.357       .  S
C2164      C2165   1.405       .  A
C2164      H2169   1.083       .  S
C2165      C2166   1.407       .  A
C2166      F2167   1.358       .  S
C2171      C2172   1.404       .  A
C2171      C2176   1.402       .  A
C2171      H2178   1.083       .  S
C2172      C2173   1.409       .  A
C2173      C2174   1.399       .  A
C2173      F2180   1.358       .  S
C2174      C2175   1.403       .  A
C2174      H2179   1.083       .  S
C2175      C2176   1.409       .  A
C2176      F2177   1.357       .  S
C2181      C2182   1.404       .  A
C2181      C2186   1.401       .  A
C2181      H2188   1.083       .  S
C2182      C2183   1.409       .  A
C2183      C2184   1.395       .  A
C2183      F2190   1.358       .  S
C2184      C2185   1.402       .  A
C2184      H2189   1.083       .  S
C2185      C2186   1.409       .  A
C2186      F2187   1.357       .  S
C2191      C2192   1.404       .  A
C2191      C2196   1.402       .  A
C2191      H2198   1.083       .  S
C2192      C2193   1.409       .  A
C2193      C2194   1.395       .  A
C2193      F2200   1.358       .  S
C2194      C2195   1.403       .  A
C2194      H2199   1.083       .  S
C2195      C2196   1.409       .  A
C2196      F2197   1.357       .  S
C2201      C2202   1.404       .  A
C2201      C2206   1.393       .  A
C2201      H2208   1.083       .  S
C2202      C2203   1.409       .  A
C2203      C2204   1.403       .  A
C2203      F2210   1.357       .  S
C2204      C2205   1.405       .  A
C2204      H2209   1.082       .  S
C2205      C2206   1.408       .  A
C2206      F2207   1.358       .  S
C2211      C2212   1.404       .  A
C2211      C2216   1.401       .  A
C2211      H2218   1.083       .  S
C2212      C2213   1.410       .  A
C2213      C2214   1.399       .  A
C2213      F2220   1.358       .  S
C2214      C2215   1.403       .  A
C2214      H2219   1.083       .  S
C2215      C2216   1.409       .  A
C2216      F2217   1.357       .  S
C2221      C2222   1.403       .  A
C2221      C2226   1.391   1_455  A
C2221      H2228   1.083       .  S
C2222      C2223   1.407       .  A
C2223      C2224   1.398   1_455  A
C2223      F2230   1.357       .  S
C2224      C2225   1.404       .  A
C2224      H2229   1.083       .  S
C2225      C2226   1.406       .  A
C2226      F2227   1.358       .  S
C2231      C2232   1.405       .  A
C2231      C2236   1.402       .  A
C2231      H2238   1.083       .  S
C2232      C2233   1.409       .  A
C2233      C2234   1.394       .  A
C2233      F2240   1.358       .  S
C2234      C2235   1.402       .  A
C2234      H2239   1.083       .  S
C2235      C2236   1.409       .  A
C2236      F2237   1.357       .  S
C2241      C2242   1.404       .  A
C2241      C2246   1.401       .  A
C2241      H2248   1.083       .  S
C2242      C2243   1.409       .  A
C2243      C2244   1.396       .  A
C2243      F2250   1.357       .  S
C2244      C2245   1.402       .  A
C2244      H2249   1.082       .  S
C2245      C2246   1.410       .  A
C2246      F2247   1.357       .  S
C2251      C2252   1.403       .  A
C2251      C2256   1.394       .  A
C2251      H2258   1.083       .  S
C2252      C2253   1.409       .  A
C2253      C2254   1.404       .  A
C2253      F2260   1.357       .  S
C2254      C2255   1.406       .  A
C2254      H2259   1.083       .  S
C2255      C2256   1.409       .  A
C2256      F2257   1.358       .  S
C2261      C2262   1.405       .  A
C2261      C2266   1.402       .  A
C2261      H2268   1.083       .  S
C2262      C2263   1.411       .  A
C2263      C2264   1.399       .  A
C2263      F2270   1.357       .  S
C2264      C2265   1.403       .  A
C2264      H2269   1.083       .  S
C2265      C2266   1.410       .  A
C2266      F2267   1.357       .  S
C2271      C2272   1.406       .  A
C2271      C2276   1.396       .  A
C2271      H2278   1.082       .  S
C2272      C2273   1.407       .  A
C2273      C2274   1.402       .  A
C2273      F2280   1.357       .  S
C2274      C2275   1.407       .  A
C2274      H2279   1.082       .  S
C2275      C2276   1.406       .  A
C2276      F2277   1.358       .  S
C2281      C2282   1.404       .  A
C2281      C2286   1.400       .  A
C2281      H2288   1.083       .  S
C2282      C2283   1.409       .  A
C2283      C2284   1.398       .  A
C2283      F2290   1.357       .  S
C2284      C2285   1.403       .  A
C2284      H2289   1.083       .  S
C2285      C2286   1.409       .  A
C2286      F2287   1.357       .  S
C2291      C2292   1.404       .  A
C2291      C2296   1.393       .  A
C2291      H2298   1.083       .  S
C2292      C2293   1.408       .  A
C2293      C2294   1.403       .  A
C2293      F2300   1.357       .  S
C2294      C2295   1.405       .  A
C2294      H2299   1.082       .  S
C2295      C2296   1.406       .  A
C2296      F2297   1.358       .  S
C2301      C2302   1.404       .  A
C2301      C2306   1.401       .  A
C2301      H2308   1.083       .  S
C2302      C2303   1.410       .  A
C2303      C2304   1.399       .  A
C2303      F2310   1.357       .  S
C2304      C2305   1.403       .  A
C2304      H2309   1.083       .  S
C2305      C2306   1.410       .  A
C2306      F2307   1.357       .  S
C2311      C2312   1.401       .  A
C2311      C2316   1.391   1_455  A
C2311      H2318   1.083       .  S
C2312      C2313   1.405       .  A
C2313      C2314   1.399   1_455  A
C2313      F2320   1.357       .  S
C2314      C2315   1.404       .  A
C2314      H2319   1.082       .  S
C2315      C2316   1.405       .  A
C2316      F2317   1.358       .  S
C2321      C2322   1.404       .  A
C2321      C2326   1.393       .  A
C2321      H2328   1.083       .  S
C2322      C2323   1.407       .  A
C2323      C2324   1.403       .  A
C2323      F2330   1.357       .  S
C2324      C2325   1.407       .  A
C2324      H2329   1.082       .  S
C2325      C2326   1.407       .  A
C2326      F2327   1.358       .  S
C2331      C2332   1.404       .  A
C2331      C2336   1.399       .  A
C2331      H2338   1.083       .  S
C2332      C2333   1.409       .  A
C2333      C2334   1.398       .  A
C2333      F2340   1.358       .  S
C2334      C2335   1.404       .  A
C2334      H2339   1.083       .  S
C2335      C2336   1.409       .  A
C2336      F2337   1.357       .  S
C2341      C2342   1.405       .  A
C2341      C2346   1.390       .  A
C2341      H2348   1.083       .  S
C2342      C2343   1.409       .  A
C2343      C2344   1.406       .  A
C2343      F2350   1.357       .  S
C2344      C2345   1.404       .  A
C2344      H2349   1.082       .  S
C2345      C2346   1.402       .  A
C2346      F2347   1.359       .  S
C2351      C2352   1.407       .  A
C2351      C2356   1.400       .  A
C2351      H2358   1.082       .  S
C2352      C2353   1.406       .  A
C2353      C2354   1.400       .  A
C2353      F2360   1.357       .  S
C2354      C2355   1.407       .  A
C2354      H2359   1.082       .  S
C2355      C2356   1.406       .  A
C2356      F2357   1.357       .  S
C2361      C2362   1.406       .  A
C2361      C2366   1.402       .  A
C2361      H2368   1.083       .  S
C2362      C2363   1.409       .  A
C2363      C2364   1.396       .  A
C2363      F2370   1.357       .  S
C2364      C2365   1.402       .  A
C2364      H2369   1.083       .  S
C2365      C2366   1.408       .  A
C2366      F2367   1.357       .  S
C2371      C2372   1.407       .  A
C2371      C2376   1.402       .  A
C2371      H2378   1.082       .  S
C2372      C2373   1.407       .  A
C2373      C2374   1.398       .  A
C2373      F2380   1.357       .  S
C2374      C2375   1.406       .  A
C2374      H2379   1.083       .  S
C2375      C2376   1.407       .  A
C2376      F2377   1.357       .  S
C2381      C2382   1.407       .  A
C2381      C2386   1.402       .  A
C2381      H2388   1.082       .  S
C2382      C2383   1.408       .  A
C2383      C2384   1.395       .  A
C2383      F2390   1.358       .  S
C2384      C2385   1.404       .  A
C2384      H2389   1.083       .  S
C2385      C2386   1.406       .  A
C2386      F2387   1.357       .  S
C2391      C2392   1.408       .  A
C2391      C2396   1.400       .  A
C2391      H2398   1.083       .  S
C2392      C2393   1.407       .  A
C2393      C2394   1.401       .  A
C2393      F2400   1.357       .  S
C2394      C2395   1.407       .  A
C2394      H2399   1.083       .  S
C2395      C2396   1.406       .  A
C2396      F2397   1.357       .  S
C2401      C2402   1.402       .  A
C2401      C2406   1.393   1_455  A
C2401      H2408   1.083       .  S
C2402      C2403   1.408       .  A
C2403      C2404   1.399   1_455  A
C2403      F2410   1.357       .  S
C2404      C2405   1.404       .  A
C2404      H2409   1.083       .  S
C2405      C2406   1.408       .  A
C2406      F2407   1.358       .  S
C2411      C2412   1.407       .  A
C2411      C2416   1.398       .  A
C2411      H2418   1.082       .  S
C2412      C2413   1.406       .  A
C2413      C2414   1.399       .  A
C2413      F2420   1.357       .  S
C2414      C2415   1.406       .  A
C2414      H2419   1.083       .  S
C2415      C2416   1.405       .  A
C2416      F2417   1.357       .  S
C2421      C2422   1.406       .  A
C2421      C2426   1.397       .  A
C2421      H2428   1.082       .  S
C2422      C2423   1.407       .  A
C2423      C2424   1.401       .  A
C2423      F2430   1.357       .  S
C2424      C2425   1.407       .  A
C2424      H2429   1.082       .  S
C2425      C2426   1.407       .  A
C2426      F2427   1.357       .  S
C2431      C2432   1.403       .  A
C2431      C2436   1.399       .  A
C2431      H2438   1.083       .  S
C2432      C2433   1.409       .  A
C2433      C2434   1.397       .  A
C2433      F2440   1.358       .  S
C2434      C2435   1.403       .  A
C2434      H2439   1.082       .  S
C2435      C2436   1.410       .  A
C2436      F2437   1.357       .  S
C2441      C2442   1.404       .  A
C2441      C2446   1.401       .  A
C2441      H2448   1.083       .  S
C2442      C2443   1.410       .  A
C2443      C2444   1.399       .  A
C2443      F2450   1.357       .  S
C2444      C2445   1.403       .  A
C2444      H2449   1.083       .  S
C2445      C2446   1.410       .  A
C2446      F2447   1.357       .  S
C2451      C2452   1.404       .  A
C2451      C2456   1.400       .  A
C2451      H2458   1.083       .  S
C2452      C2453   1.409       .  A
C2453      C2454   1.396       .  A
C2453      F2460   1.358       .  S
C2454      C2455   1.403       .  A
C2454      H2459   1.083       .  S
C2455      C2456   1.409       .  A
C2456      F2457   1.357       .  S
C2461      C2462   1.406       .  A
C2461      C2466   1.399       .  A
C2461      H2468   1.083       .  S
C2462      C2463   1.405       .  A
C2463      C2464   1.399       .  A
C2463      F2470   1.357       .  S
C2464      C2465   1.407       .  A
C2464      H2469   1.083       .  S
C2465      C2466   1.406       .  A
C2466      F2467   1.357       .  S
C2471      C2472   1.406       .  A
C2471      C2476   1.403       .  A
C2471      H2478   1.083       .  S
C2472      C2473   1.408       .  A
C2473      C2474   1.393       .  A
C2473      F2480   1.358       .  S
C2474      C2475   1.403       .  A
C2474      H2479   1.083       .  S
C2475      C2476   1.409       .  A
C2476      F2477   1.357       .  S
C2481      C2482   1.404       .  A
C2481      C2486   1.403       .  A
C2481      H2488   1.082       .  S
C2482      C2483   1.409       .  A
C2483      C2484   1.396       .  A
C2483      F2490   1.358       .  S
C2484      C2485   1.403       .  A
C2484      H2489   1.082       .  S
C2485      C2486   1.410       .  A
C2486      F2487   1.357       .  S
C2491      C2492   1.404       .  A
C2491      C2496   1.397   1_455  A
C2491      H2498   1.083       .  S
C2492      C2493   1.406       .  A
C2493      C2494   1.393   1_455  A
C2493      F2500   1.358       .  S
C2494      C2495   1.403       .  A
C2494      H2499   1.083       .  S
C2495      C2496   1.407       .  A
C2496      F2497   1.357       .  S
C2501      C2502   1.404       .  A
C2501      C2506   1.400       .  A
C2501      H2508   1.082       .  S
C2502      C2503   1.409       .  A
C2503      C2504   1.398       .  A
C2503      F2510   1.358       .  S
C2504      C2505   1.403       .  A
C2504      H2509   1.083       .  S
C2505      C2506   1.408       .  A
C2506      F2507   1.357       .  S
C2511      C2512   1.403       .  A
C2511      C2516   1.393       .  A
C2511      H2518   1.083       .  S
C2512      C2513   1.409       .  A
C2513      C2514   1.404       .  A
C2513      F2520   1.357       .  S
C2514      C2515   1.405       .  A
C2514      H2519   1.083       .  S
C2515      C2516   1.408       .  A
C2516      F2517   1.358       .  S
C2521      C2522   1.405       .  A
C2521      C2526   1.400       .  A
C2521      H2528   1.083       .  S
C2522      C2523   1.408       .  A
C2523      C2524   1.392       .  A
C2523      F2530   1.358       .  S
C2524      C2525   1.402       .  A
C2524      H2529   1.082       .  S
C2525      C2526   1.407       .  A
C2526      F2527   1.357       .  S
C2531      C2532   1.404       .  A
C2531      C2536   1.398       .  A
C2531      H2538   1.082       .  S
C2532      C2533   1.409       .  A
C2533      C2534   1.400       .  A
C2533      F2540   1.357       .  S
C2534      C2535   1.404       .  A
C2534      H2539   1.082       .  S
C2535      C2536   1.408       .  A
C2536      F2537   1.358       .  S
C2541      C2542   1.406       .  A
C2541      C2546   1.399       .  A
C2541      H2548   1.083       .  S
C2542      C2543   1.406       .  A
C2543      C2544   1.394       .  A
C2543      F2550   1.357       .  S
C2544      C2545   1.404       .  A
C2544      H2549   1.082       .  S
C2545      C2546   1.407       .  A
C2546      F2547   1.357       .  S
C2551      C2552   1.403       .  A
C2551      C2556   1.394       .  A
C2551      H2558   1.083       .  S
C2552      C2553   1.405       .  A
C2553      C2554   1.399       .  A
C2553      F2560   1.357       .  S
C2554      C2555   1.406       .  A
C2554      H2559   1.083       .  S
C2555      C2556   1.407       .  A
C2556      F2557   1.358       .  S
C2561      C2562   1.405       .  A
C2561      C2566   1.399       .  A
C2561      H2568   1.083       .  S
C2562      C2563   1.407       .  A
C2563      C2564   1.394       .  A
C2563      F2570   1.358       .  S
C2564      C2565   1.404       .  A
C2564      H2569   1.083       .  S
C2565      C2566   1.407       .  A
C2566      F2567   1.357       .  S
C2571      C2572   1.403       .  A
C2571      C2576   1.397       .  A
C2571      H2578   1.083       .  S
C2572      C2573   1.409       .  A
C2573      C2574   1.400       .  A
C2573      F2580   1.357       .  S
C2574      C2575   1.404       .  A
C2574      H2579   1.083       .  S
C2575      C2576   1.409       .  A
C2576      F2577   1.357       .  S
C2581      C2582   1.404       .  A
C2581      C2586   1.396       .  A
C2581      H2588   1.083       .  S
C2582      C2583   1.408       .  A
C2583      C2584   1.398       .  A
C2583      F2590   1.357       .  S
C2584      C2585   1.404       .  A
C2584      H2589   1.083       .  S
C2585      C2586   1.406       .  A
C2586      F2587   1.357       .  S
C2591      C2592   1.407       .  A
C2591      C2596   1.403       .  A
C2591      H2598   1.083       .  S
C2592      C2593   1.407       .  A
C2593      C2594   1.396       .  A
C2593      F2600   1.357       .  S
C2594      C2595   1.404       .  A
C2594      H2599   1.083       .  S
C2595      C2596   1.406       .  A
C2596      F2597   1.357       .  S
C2601      C2602   1.407       .  A
C2601      C2606   1.402   1_655  A
C2601      H2608   1.083       .  S
C2602      C2603   1.409       .  A
C2603      C2604   1.402   1_655  A
C2603      F2610   1.357       .  S
C2604      C2605   1.406       .  A
C2604      H2609   1.083       .  S
C2605      C2606   1.408       .  A
C2606      F2607   1.357       .  S
C2611      C2612   1.404       .  A
C2611      C2616   1.399       .  A
C2611      H2618   1.083       .  S
C2612      C2613   1.407       .  A
C2613      C2614   1.399       .  A
C2613      F2620   1.357       .  S
C2614      C2615   1.404       .  A
C2614      H2619   1.083       .  S
C2615      C2616   1.408       .  A
C2616      F2617   1.357       .  S
C2621      C2622   1.405       .  A
C2621      C2626   1.402       .  A
C2621      H2628   1.083       .  S
C2622      C2623   1.406       .  A
C2623      C2624   1.395       .  A
C2623      F2630   1.358       .  S
C2624      C2625   1.404       .  A
C2624      H2629   1.083       .  S
C2625      C2626   1.408       .  A
C2626      F2627   1.357       .  S
C2631      C2632   1.406       .  A
C2631      C2636   1.403   1_655  A
C2631      H2638   1.083       .  S
C2632      C2633   1.409       .  A
C2633      C2634   1.401   1_655  A
C2633      F2640   1.357       .  S
C2634      C2635   1.406       .  A
C2634      H2639   1.083       .  S
C2635      C2636   1.409       .  A
C2636      F2637   1.357       .  S
C2641      C2642   1.404       .  A
C2641      C2646   1.399       .  A
C2641      H2648   1.082       .  S
C2642      C2643   1.409       .  A
C2643      C2644   1.402       .  A
C2643      F2650   1.357       .  S
C2644      C2645   1.405       .  A
C2644      H2649   1.082       .  S
C2645      C2646   1.409       .  A
C2646      F2647   1.357       .  S
C2651      C2652   1.405       .  A
C2651      C2656   1.396       .  A
C2651      H2658   1.082       .  S
C2652      C2653   1.405       .  A
C2653      C2654   1.397       .  A
C2653      F2660   1.357       .  S
C2654      C2655   1.406       .  A
C2654      H2659   1.083       .  S
C2655      C2656   1.406       .  A
C2656      F2657   1.357       .  S
C2661      C2662   1.407       .  A
C2661      C2666   1.399       .  A
C2661      H2668   1.082       .  S
C2662      C2663   1.408       .  A
C2663      C2664   1.403       .  A
C2663      F2670   1.357       .  S
C2664      C2665   1.408       .  A
C2664      H2669   1.082       .  S
C2665      C2666   1.407       .  A
C2666      F2667   1.357       .  S
C2671      C2672   1.405       .  A
C2671      C2676   1.397       .  A
C2671      H2678   1.083       .  S
C2672      C2673   1.404       .  A
C2673      C2674   1.401       .  A
C2673      F2680   1.357       .  S
C2674      C2675   1.408       .  A
C2674      H2679   1.083       .  S
C2675      C2676   1.406       .  A
C2676      F2677   1.357       .  S
C2681      C2682   1.402       .  A
C2681      C2686   1.393       .  A
C2681      H2688   1.083       .  S
C2682      C2683   1.406       .  A
C2683      C2684   1.399       .  A
C2683      F2690   1.357       .  S
C2684      C2685   1.405       .  A
C2684      H2689   1.083       .  S
C2685      C2686   1.407       .  A
C2686      F2687   1.358       .  S
C2691      C2692   1.402       .  A
C2691      C2696   1.396       .  A
C2691      H2698   1.083       .  S
C2692      C2693   1.405       .  A
C2693      C2694   1.396       .  A
C2693      F2700   1.358       .  S
C2694      C2695   1.404       .  A
C2694      H2699   1.083       .  S
C2695      C2696   1.408       .  A
C2696      F2697   1.357       .  S
C2701      C2702   1.406       .  A
C2701      C2706   1.399       .  A
C2701      H2708   1.083       .  S
C2702      C2703   1.405       .  A
C2703      C2704   1.401       .  A
C2703      F2710   1.357       .  S
C2704      C2705   1.408       .  A
C2704      H2709   1.083       .  S
C2705      C2706   1.407       .  A
C2706      F2707   1.357       .  S
C2711      C2712   1.404       .  A
C2711      C2716   1.400       .  A
C2711      H2718   1.082       .  S
C2712      C2713   1.408       .  A
C2713      C2714   1.392       .  A
C2713      F2720   1.358       .  S
C2714      C2715   1.402       .  A
C2714      H2719   1.083       .  S
C2715      C2716   1.407       .  A
C2716      F2717   1.357       .  S
C2721      C2722   1.406       .  A
C2721      C2726   1.399       .  A
C2721      H2728   1.082       .  S
C2722      C2723   1.408       .  A
C2723      C2724   1.401       .  A
C2723      F2730   1.357       .  S
C2724      C2725   1.406       .  A
C2724      H2729   1.082       .  S
C2725      C2726   1.407       .  A
C2726      F2727   1.357       .  S
C2731      C2732   1.405       .  A
C2731      C2736   1.397       .  A
C2731      H2738   1.083       .  S
C2732      C2733   1.406       .  A
C2733      C2734   1.395       .  A
C2733      F2740   1.357       .  S
C2734      C2735   1.405       .  A
C2734      H2739   1.083       .  S
C2735      C2736   1.406       .  A
C2736      F2737   1.357       .  S
C2741      C2742   1.404       .  A
C2741      C2746   1.399       .  A
C2741      H2748   1.083       .  S
C2742      C2743   1.405       .  A
C2743      C2744   1.393       .  A
C2743      F2750   1.358       .  S
C2744      C2745   1.404       .  A
C2744      H2749   1.082       .  S
C2745      C2746   1.408       .  A
C2746      F2747   1.357       .  S
C2751      C2752   1.405       .  A
C2751      C2756   1.397       .  A
C2751      H2758   1.083       .  S
C2752      C2753   1.408       .  A
C2753      C2754   1.402       .  A
C2753      F2760   1.357       .  S
C2754      C2755   1.407       .  A
C2754      H2759   1.083       .  S
C2755      C2756   1.407       .  A
C2756      F2757   1.357       .  S
C2761      C2762   1.405       .  A
C2761      C2766   1.404       .  A
C2761      H2768   1.083       .  S
C2762      C2763   1.406       .  A
C2763      C2764   1.391       .  A
C2763      F2770   1.358       .  S
C2764      C2765   1.403       .  A
C2764      H2769   1.083       .  S
C2765      C2766   1.409       .  A
C2766      F2767   1.357       .  S
C2771      C2772   1.401       .  A
C2771      C2776   1.395       .  A
C2771      H2778   1.083       .  S
C2772      C2773   1.406       .  A
C2773      C2774   1.398       .  A
C2773      F2780   1.358       .  S
C2774      C2775   1.404       .  A
C2774      H2779   1.083       .  S
C2775      C2776   1.408       .  A
C2776      F2777   1.358       .  S
C2781      C2782   1.405       .  A
C2781      C2786   1.394       .  A
C2781      H2788   1.082       .  S
C2782      C2783   1.407       .  A
C2783      C2784   1.398       .  A
C2783      F2790   1.357       .  S
C2784      C2785   1.404       .  A
C2784      H2789   1.083       .  S
C2785      C2786   1.404       .  A
C2786      F2787   1.357       .  S
C2791      C2792   1.405       .  A
C2791      C2796   1.402       .  A
C2791      H2798   1.083       .  S
C2792      C2793   1.409       .  A
C2793      C2794   1.396       .  A
C2793      F2800   1.358       .  S
C2794      C2795   1.403       .  A
C2794      H2799   1.083       .  S
C2795      C2796   1.410       .  A
C2796      F2797   1.357       .  S
C2801      C2802   1.404       .  A
C2801      C2806   1.394       .  A
C2801      H2808   1.082       .  S
C2802      C2803   1.407       .  A
C2803      C2804   1.398       .  A
C2803      F2810   1.357       .  S
C2804      C2805   1.404       .  A
C2804      H2809   1.082       .  S
C2805      C2806   1.406       .  A
C2806      F2807   1.358       .  S
C2811      C2812   1.406       .  A
C2811      C2816   1.405       .  A
C2811      H2818   1.082       .  S
C2812      C2813   1.407       .  A
C2813      C2814   1.392       .  A
C2813      F2820   1.358       .  S
C2814      C2815   1.403       .  A
C2814      H2819   1.083       .  S
C2815      C2816   1.408       .  A
C2816      F2817   1.357       .  S
C2821      C2822   1.403       .  A
C2821      C2826   1.395       .  A
C2821      H2828   1.083       .  S
C2822      C2823   1.407       .  A
C2823      C2824   1.397       .  A
C2823      F2830   1.358       .  S
C2824      C2825   1.405       .  A
C2824      H2829   1.083       .  S
C2825      C2826   1.407       .  A
C2826      F2827   1.357       .  S
C2831      C2832   1.404       .  A
C2831      C2836   1.399       .  A
C2831      H2838   1.083       .  S
C2832      C2833   1.408       .  A
C2833      C2834   1.394       .  A
C2833      F2840   1.358       .  S
C2834      C2835   1.402       .  A
C2834      H2839   1.083       .  S
C2835      C2836   1.408       .  A
C2836      F2837   1.357       .  S
C2841      C2842   1.405       .  A
C2841      C2846   1.403       .  A
C2841      H2848   1.082       .  S
C2842      C2843   1.409       .  A
C2843      C2844   1.398       .  A
C2843      F2850   1.358       .  S
C2844      C2845   1.404       .  A
C2844      H2849   1.082       .  S
C2845      C2846   1.410       .  A
C2846      F2847   1.357       .  S
C2851      C2852   1.404       .  A
C2851      C2856   1.399       .  A
C2851      H2858   1.083       .  S
C2852      C2853   1.410       .  A
C2853      C2854   1.399       .  A
C2853      F2860   1.357       .  S
C2854      C2855   1.403       .  A
C2854      H2859   1.083       .  S
C2855      C2856   1.409       .  A
C2856      F2857   1.358       .  S
C2861      C2862   1.402       .  A
C2861      C2866   1.394       .  A
C2861      H2868   1.083       .  S
C2862      C2863   1.407       .  A
C2863      C2864   1.398       .  A
C2863      F2870   1.358       .  S
C2864      C2865   1.404       .  A
C2864      H2869   1.083       .  S
C2865      C2866   1.408       .  A
C2866      F2867   1.357       .  S
C2871      C2872   1.404       .  A
C2871      C2876   1.398       .  A
C2871      H2878   1.083       .  S
C2872      C2873   1.407       .  A
C2873      C2874   1.394       .  A
C2873      F2880   1.358       .  S
C2874      C2875   1.402       .  A
C2874      H2879   1.083       .  S
C2875      C2876   1.407       .  A
C2876      F2877   1.358       .  S
C2881      C2882   1.406       .  A
C2881      C2886   1.398       .  A
C2881      H2888   1.083       .  S
C2882      C2883   1.406       .  A
C2883      C2884   1.402       .  A
C2883      F2890   1.357       .  S
C2884      C2885   1.406       .  A
C2884      H2889   1.083       .  S
C2885      C2886   1.406       .  A
C2886      F2887   1.357       .  S
C2891      C2892   1.402       .  A
C2891      C2896   1.393       .  A
C2891      H2898   1.083       .  S
C2892      C2893   1.406       .  A
C2893      C2894   1.397       .  A
C2893      F2900   1.357       .  S
C2894      C2895   1.404       .  A
C2894      H2899   1.083       .  S
C2895      C2896   1.407       .  A
C2896      F2897   1.358       .  S
C2901      C2902   1.405       .  A
C2901      C2906   1.404       .  A
C2901      H2908   1.083       .  S
C2902      C2903   1.407       .  A
C2903      C2904   1.393       .  A
C2903      F2910   1.358       .  S
C2904      C2905   1.403       .  A
C2904      H2909   1.083       .  S
C2905      C2906   1.408       .  A
C2906      F2907   1.357       .  S
C2911      C2912   1.402       .  A
C2911      C2916   1.397       .  A
C2911      H2918   1.082       .  S
C2912      C2913   1.406       .  A
C2913      C2914   1.396       .  A
C2913      F2920   1.358       .  S
C2914      C2915   1.404       .  A
C2914      H2919   1.083       .  S
C2915      C2916   1.408       .  A
C2916      F2917   1.357       .  S
C2921      C2922   1.404       .  A
C2921      C2926   1.392       .  A
C2921      H2928   1.083       .  S
C2922      C2923   1.407       .  A
C2923      C2924   1.400       .  A
C2923      F2930   1.357       .  S
C2924      C2925   1.404       .  A
C2924      H2929   1.083       .  S
C2925      C2926   1.405       .  A
C2926      F2927   1.358       .  S
C2931      C2932   1.407       .  A
C2931      C2936   1.406       .  A
C2931      H2938   1.082       .  S
C2932      C2933   1.405       .  A
C2933      C2934   1.390       .  A
C2933      F2940   1.358       .  S
C2934      C2935   1.404       .  A
C2934      H2939   1.083       .  S
C2935      C2936   1.408       .  A
C2936      F2937   1.357       .  S
C2941      C2942   1.404       .  A
C2941      C2946   1.396       .  A
C2941      H2948   1.083       .  S
C2942      C2943   1.406       .  A
C2943      C2944   1.402       .  A
C2943      F2950   1.357       .  S
C2944      C2945   1.407       .  A
C2944      H2949   1.082       .  S
C2945      C2946   1.408       .  A
C2946      F2947   1.358       .  S
C2951      C2952   1.403       .  A
C2951      C2956   1.397       .  A
C2951      H2958   1.082       .  S
C2952      C2953   1.409       .  A
C2953      C2954   1.395       .  A
C2953      F2960   1.358       .  S
C2954      C2955   1.402       .  A
C2954      H2959   1.083       .  S
C2955      C2956   1.408       .  A
C2956      F2957   1.357       .  S
C2961      C2962   1.405       .  A
C2961      C2966   1.394       .  A
C2961      H2968   1.083       .  S
C2962      C2963   1.405       .  A
C2963      C2964   1.398       .  A
C2963      F2970   1.357       .  S
C2964      C2965   1.405       .  A
C2964      H2969   1.083       .  S
C2965      C2966   1.404       .  A
C2966      F2967   1.358       .  S
C2971      C2972   1.402       .  A
C2971      C2976   1.392       .  A
C2971      H2978   1.083       .  S
C2972      C2973   1.407       .  A
C2973      C2974   1.397       .  A
C2973      F2980   1.357       .  S
C2974      C2975   1.403       .  A
C2974      H2979   1.082       .  S
C2975      C2976   1.408       .  A
C2976      F2977   1.358       .  S
C2981      C2982   1.400       .  A
C2981      C2986   1.390       .  A
C2981      H2988   1.084       .  S
C2982      C2983   1.406       .  A
C2983      C2984   1.405       .  A
C2983      F2990   1.357       .  S
C2984      C2985   1.407       .  A
C2984      H2989   1.082       .  S
C2985      C2986   1.408       .  A
C2986      F2987   1.358       .  S
C2991      C2992   1.404       .  A
C2991      C2996   1.396       .  A
C2991      H2998   1.083       .  S
C2992      C2993   1.405       .  A
C2993      C2994   1.401       .  A
C2993      F3000   1.357       .  S
C2994      C2995   1.407       .  A
C2994      H2999   1.082       .  S
C2995      C2996   1.408       .  A
C2996      F2997   1.358       .  S
C3001      C3002   1.404       .  A
C3001      C3006   1.399       .  A
C3001      H3008   1.083       .  S
C3002      C3003   1.409       .  A
C3003      C3004   1.393       .  A
C3003      F3010   1.358       .  S
C3004      C3005   1.400       .  A
C3004      H3009   1.083       .  S
C3005      C3006   1.407       .  A
C3006      F3007   1.357       .  S
C3011      C3012   1.406       .  A
C3011      C3016   1.397       .  A
C3011      H3018   1.082       .  S
C3012      C3013   1.408       .  A
C3013      C3014   1.402       .  A
C3013      F3020   1.357       .  S
C3014      C3015   1.406       .  A
C3014      H3019   1.082       .  S
C3015      C3016   1.406       .  A
C3016      F3017   1.358       .  S
C3021      C3022   1.406       .  A
C3021      C3026   1.401   1_556  A
C3021      H3028   1.082       .  S
C3022      C3023   1.409       .  A
C3023      C3024   1.401   1_556  A
C3023      F3030   1.357       .  S
C3024      C3025   1.405       .  A
C3024      H3029   1.082       .  S
C3025      C3026   1.409       .  A
C3026      F3027   1.357       .  S
C3031      C3032   1.405       .  A
C3031      C3036   1.399       .  A
C3031      H3038   1.082       .  S
C3032      C3033   1.408       .  A
C3033      C3034   1.397       .  A
C3033      F3040   1.357       .  S
C3034      C3035   1.404       .  A
C3034      H3039   1.083       .  S
C3035      C3036   1.408       .  A
C3036      F3037   1.357       .  S
C3041      C3042   1.404       .  A
C3041      C3046   1.398       .  A
C3041      H3048   1.083       .  S
C3042      C3043   1.407       .  A
C3043      C3044   1.398       .  A
C3043      F3050   1.357       .  S
C3044      C3045   1.405       .  A
C3044      H3049   1.083       .  S
C3045      C3046   1.408       .  A
C3046      F3047   1.357       .  S
C3051      C3052   1.405       .  A
C3051      C3056   1.401   1_556  A
C3051      H3058   1.083       .  S
C3052      C3053   1.410       .  A
C3053      C3054   1.403   1_556  A
C3053      F3060   1.357       .  S
C3054      C3055   1.406       .  A
C3054      H3059   1.083       .  S
C3055      C3056   1.409       .  A
C3056      F3057   1.357       .  S
C3061      C3062   1.404       .  A
C3061      C3066   1.401       .  A
C3061      H3068   1.083       .  S
C3062      C3063   1.409       .  A
C3063      C3064   1.398       .  A
C3063      F3070   1.358       .  S
C3064      C3065   1.404       .  A
C3064      H3069   1.083       .  S
C3065      C3066   1.410       .  A
C3066      F3067   1.357       .  S
C3071      C3072   1.403       .  A
C3071      C3076   1.398       .  A
C3071      H3078   1.083       .  S
C3072      C3073   1.407       .  A
C3073      C3074   1.394       .  A
C3073      F3080   1.358       .  S
C3074      C3075   1.400       .  A
C3074      H3079   1.082       .  S
C3075      C3076   1.407       .  A
C3076      F3077   1.358       .  S
C3081      C3082   1.404       .  A
C3081      C3086   1.400       .  A
C3081      H3088   1.083       .  S
C3082      C3083   1.409       .  A
C3083      C3084   1.399       .  A
C3083      F3090   1.357       .  S
C3084      C3085   1.404       .  A
C3084      H3089   1.083       .  S
C3085      C3086   1.410       .  A
C3086      F3087   1.357       .  S
C3091      C3092   1.404       .  A
C3091      C3096   1.399       .  A
C3091      H3098   1.083       .  S
C3092      C3093   1.409       .  A
C3093      C3094   1.397       .  A
C3093      F3100   1.358       .  S
C3094      C3095   1.403       .  A
C3094      H3099   1.083       .  S
C3095      C3096   1.409       .  A
C3096      F3097   1.357       .  S
C3101      C3102   1.405       .  A
C3101      C3106   1.403       .  A
C3101      H3108   1.083       .  S
C3102      C3103   1.407       .  A
C3103      C3104   1.393       .  A
C3103      F3110   1.358       .  S
C3104      C3105   1.403       .  A
C3104      H3109   1.083       .  S
C3105      C3106   1.408       .  A
C3106      F3107   1.357       .  S
C3111      C3112   1.405       .  A
C3111      C3116   1.397       .  A
C3111      H3118   1.083       .  S
C3112      C3113   1.407       .  A
C3113      C3114   1.397       .  A
C3113      F3120   1.357       .  S
C3114      C3115   1.402       .  A
C3114      H3119   1.082       .  S
C3115      C3116   1.405       .  A
C3116      F3117   1.358       .  S
C3121      C3122   1.405       .  A
C3121      C3126   1.396       .  A
C3121      H3128   1.082       .  S
C3122      C3123   1.409       .  A
C3123      C3124   1.397       .  A
C3123      F3130   1.358       .  S
C3124      C3125   1.401       .  A
C3124      H3129   1.083       .  S
C3125      C3126   1.403       .  A
C3126      F3127   1.358       .  S
C3131      C3132   1.406       .  A
C3131      C3136   1.399       .  A
C3131      H3138   1.083       .  S
C3132      C3133   1.406       .  A
C3133      C3134   1.400       .  A
C3133      F3140   1.357       .  S
C3134      C3135   1.406       .  A
C3134      H3139   1.083       .  S
C3135      C3136   1.405       .  A
C3136      F3137   1.357       .  S
C3141      C3142   1.405       .  A
C3141      C3146   1.395       .  A
C3141      H3148   1.083       .  S
C3142      C3143   1.407       .  A
C3143      C3144   1.398       .  A
C3143      F3150   1.357       .  S
C3144      C3145   1.404       .  A
C3144      H3149   1.082       .  S
C3145      C3146   1.406       .  A
C3146      F3147   1.358       .  S
C3151      C3152   1.406       .  A
C3151      C3156   1.403       .  A
C3151      H3158   1.082       .  S
C3152      C3153   1.408       .  A
C3153      C3154   1.394       .  A
C3153      F3160   1.358       .  S
C3154      C3155   1.404       .  A
C3154      H3159   1.083       .  S
C3155      C3156   1.408       .  A
C3156      F3157   1.357       .  S
C3161      C3162   1.404       .  A
C3161      C3166   1.398       .  A
C3161      H3168   1.083       .  S
C3162      C3163   1.409       .  A
C3163      C3164   1.399       .  A
C3163      F3170   1.357       .  S
C3164      C3165   1.404       .  A
C3164      H3169   1.083       .  S
C3165      C3166   1.409       .  A
C3166      F3167   1.357       .  S
C3171      C3172   1.405       .  A
C3171      C3176   1.397       .  A
C3171      H3178   1.083       .  S
C3172      C3173   1.406       .  A
C3173      C3174   1.396       .  A
C3173      F3180   1.357       .  S
C3174      C3175   1.405       .  A
C3174      H3179   1.083       .  S
C3175      C3176   1.407       .  A
C3176      F3177   1.357       .  S
C3181      C3182   1.405       .  A
C3181      C3186   1.395       .  A
C3181      H3188   1.083       .  S
C3182      C3183   1.407       .  A
C3183      C3184   1.398       .  A
C3183      F3190   1.357       .  S
C3184      C3185   1.404       .  A
C3184      H3189   1.084       .  S
C3185      C3186   1.404       .  A
C3186      F3187   1.358       .  S
C3191      C3192   1.404       .  A
C3191      C3196   1.401       .  A
C3191      H3198   1.083       .  S
C3192      C3193   1.408       .  A
C3193      C3194   1.400       .  A
C3193      F3200   1.357       .  S
C3194      C3195   1.405       .  A
C3194      H3199   1.082       .  S
C3195      C3196   1.410       .  A
C3196      F3197   1.357       .  S
C3201      C3202   1.404       .  A
C3201      C3206   1.400       .  A
C3201      H3208   1.082       .  S
C3202      C3203   1.409       .  A
C3203      C3204   1.395       .  A
C3203      F3210   1.358       .  S
C3204      C3205   1.403       .  A
C3204      H3209   1.083       .  S
C3205      C3206   1.409       .  A
C3206      F3207   1.357       .  S
C3211      C3212   1.407       .  A
C3211      C3216   1.403       .  A
C3211      H3218   1.083       .  S
C3212      C3213   1.408       .  A
C3213      C3214   1.394       .  A
C3213      F3220   1.358       .  S
C3214      C3215   1.403       .  A
C3214      H3219   1.083       .  S
C3215      C3216   1.407       .  A
C3216      F3217   1.357       .  S
C3221      C3222   1.404       .  A
C3221      C3226   1.398       .  A
C3221      H3228   1.083       .  S
C3222      C3223   1.406       .  A
C3223      C3224   1.395       .  A
C3223      F3230   1.358       .  S
C3224      C3225   1.404       .  A
C3224      H3229   1.083       .  S
C3225      C3226   1.407       .  A
C3226      F3227   1.357       .  S
C3231      C3232   1.403       .  A
C3231      C3236   1.398       .  A
C3231      H3238   1.083       .  S
C3232      C3233   1.405       .  A
C3233      C3234   1.394       .  A
C3233      F3240   1.358       .  S
C3234      C3235   1.404       .  A
C3234      H3239   1.083       .  S
C3235      C3236   1.408       .  A
C3236      F3237   1.357       .  S
C3241      C3242   1.405       .  A
C3241      C3246   1.401       .  A
C3241      H3248   1.083       .  S
C3242      C3243   1.410       .  A
C3243      C3244   1.398       .  A
C3243      F3250   1.357       .  S
C3244      C3245   1.402       .  A
C3244      H3249   1.083       .  S
C3245      C3246   1.407       .  A
C3246      F3247   1.357       .  S
C3251      C3252   1.404       .  A
C3251      C3256   1.394       .  A
C3251      H3258   1.083       .  S
C3252      C3253   1.406       .  A
C3253      C3254   1.398       .  A
C3253      F3260   1.357       .  S
C3254      C3255   1.405       .  A
C3254      H3259   1.083       .  S
C3255      C3256   1.406       .  A
C3256      F3257   1.358       .  S
C3261      C3262   1.406       .  A
C3261      C3266   1.403       .  A
C3261      H3268   1.083       .  S
C3262      C3263   1.408       .  A
C3263      C3264   1.394       .  A
C3263      F3270   1.358       .  S
C3264      C3265   1.404       .  A
C3264      H3269   1.083       .  S
C3265      C3266   1.408       .  A
C3266      F3267   1.357       .  S
C3271      C3272   1.407       .  A
C3271      C3276   1.399       .  A
C3271      H3278   1.083       .  S
C3272      C3273   1.406       .  A
C3273      C3274   1.398       .  A
C3273      F3280   1.357       .  S
C3274      C3275   1.406       .  A
C3274      H3279   1.083       .  S
C3275      C3276   1.405       .  A
C3276      F3277   1.357       .  S
C3281      C3282   1.404       .  A
C3281      C3286   1.398       .  A
C3281      H3288   1.083       .  S
C3282      C3283   1.406       .  A
C3283      C3284   1.396       .  A
C3283      F3290   1.357       .  S
C3284      C3285   1.405       .  A
C3284      H3289   1.082       .  S
C3285      C3286   1.407       .  A
C3286      F3287   1.357       .  S
C3291      C3292   1.404       .  A
C3291      C3296   1.397       .  A
C3291      H3298   1.083       .  S
C3292      C3293   1.407       .  A
C3293      C3294   1.396       .  A
C3293      F3300   1.357       .  S
C3294      C3295   1.404       .  A
C3294      H3299   1.082       .  S
C3295      C3296   1.408       .  A
C3296      F3297   1.358       .  S
C3301      C3302   1.406       .  A
C3301      C3306   1.396       .  A
C3301      H3308   1.083       .  S
C3302      C3303   1.407       .  A
C3303      C3304   1.403       .  A
C3303      F3310   1.357       .  S
C3304      C3305   1.407       .  A
C3304      H3309   1.083       .  S
C3305      C3306   1.406       .  A
C3306      F3307   1.358       .  S
C3311      C3312   1.405       .  A
C3311      C3316   1.404       .  A
C3311      H3318   1.082       .  S
C3312      C3313   1.408       .  A
C3313      C3314   1.392       .  A
C3313      F3320   1.358       .  S
C3314      C3315   1.403       .  A
C3314      H3319   1.083       .  S
C3315      C3316   1.409       .  A
C3316      F3317   1.357       .  S
C3321      C3322   1.404       .  A
C3321      C3326   1.403       .  A
C3321      H3328   1.083       .  S
C3322      C3323   1.407       .  A
C3323      C3324   1.394       .  A
C3323      F3330   1.358       .  S
C3324      C3325   1.404       .  A
C3324      H3329   1.083       .  S
C3325      C3326   1.409       .  A
C3326      F3327   1.357       .  S
C3331      C3332   1.405       .  A
C3331      C3336   1.395       .  A
C3331      H3338   1.083       .  S
C3332      C3333   1.406       .  A
C3333      C3334   1.398       .  A
C3333      F3340   1.357       .  S
C3334      C3335   1.405       .  A
C3334      H3339   1.082       .  S
C3335      C3336   1.406       .  A
C3336      F3337   1.358       .  S
C3341      C3342   1.405       .  A
C3341      C3346   1.399       .  A
C3341      H3348   1.083       .  S
C3342      C3343   1.408       .  A
C3343      C3344   1.394       .  A
C3343      F3350   1.358       .  S
C3344      C3345   1.402       .  A
C3344      H3349   1.083       .  S
C3345      C3346   1.406       .  A
C3346      F3347   1.357       .  S
C3351      C3352   1.405       .  A
C3351      C3356   1.402       .  A
C3351      H3358   1.083       .  S
C3352      C3353   1.410       .  A
C3353      C3354   1.399       .  A
C3353      F3360   1.357       .  S
C3354      C3355   1.402       .  A
C3354      H3359   1.083       .  S
C3355      C3356   1.408       .  A
C3356      F3357   1.357       .  S
C3361      C3362   1.401       .  A
C3361      C3366   1.390       .  A
C3361      H3368   1.083       .  S
C3362      C3363   1.406       .  A
C3363      C3364   1.400       .  A
C3363      F3370   1.357       .  S
C3364      C3365   1.405       .  A
C3364      H3369   1.082       .  S
C3365      C3366   1.407       .  A
C3366      F3367   1.358       .  S
C3371      C3372   1.404       .  A
C3371      C3376   1.400       .  A
C3371      H3378   1.083       .  S
C3372      C3373   1.410       .  A
C3373      C3374   1.398       .  A
C3373      F3380   1.357       .  S
C3374      C3375   1.402       .  A
C3374      H3379   1.083       .  S
C3375      C3376   1.408       .  A
C3376      F3377   1.358       .  S
C3381      C3382   1.403       .  A
C3381      C3386   1.397       .  A
C3381      H3388   1.083       .  S
C3382      C3383   1.409       .  A
C3383      C3384   1.400       .  A
C3383      F3390   1.357       .  S
C3384      C3385   1.404       .  A
C3384      H3389   1.083       .  S
C3385      C3386   1.410       .  A
C3386      F3387   1.358       .  S
C3391      C3392   1.405       .  A
C3391      C3396   1.398       .  A
C3391      H3398   1.083       .  S
C3392      C3393   1.404       .  A
C3393      C3394   1.394       .  A
C3393      F3400   1.357       .  S
C3394      C3395   1.405       .  A
C3394      H3399   1.083       .  S
C3395      C3396   1.406       .  A
C3396      F3397   1.357       .  S
C3401      C3402   1.405       .  A
C3401      C3406   1.398       .  A
C3401      H3408   1.083       .  S
C3402      C3403   1.407       .  A
C3403      C3404   1.393       .  A
C3403      F3410   1.358       .  S
C3404      C3405   1.403       .  A
C3404      H3409   1.083       .  S
C3405      C3406   1.407       .  A
C3406      F3407   1.357       .  S
C3411      C3412   1.404       .  A
C3411      C3416   1.399       .  A
C3411      H3418   1.083       .  S
C3412      C3413   1.409       .  A
C3413      C3414   1.399       .  A
C3413      F3420   1.357       .  S
C3414      C3415   1.404       .  A
C3414      H3419   1.083       .  S
C3415      C3416   1.409       .  A
C3416      F3417   1.357       .  S
C3421      C3422   1.407       .  A
C3421      C3426   1.397       .  A
C3421      H3428   1.082       .  S
C3422      C3423   1.407       .  A
C3423      C3424   1.400       .  A
C3423      F3430   1.357       .  S
C3424      C3425   1.405       .  A
C3424      H3429   1.083       .  S
C3425      C3426   1.403       .  A
C3426      F3427   1.358       .  S
C3431      C3432   1.405       .  A
C3431      C3436   1.395       .  A
C3431      H3438   1.083       .  S
C3432      C3433   1.408       .  A
C3433      C3434   1.403       .  A
C3433      F3440   1.357       .  S
C3434      C3435   1.407       .  A
C3434      H3439   1.083       .  S
C3435      C3436   1.407       .  A
C3436      F3437   1.358       .  S
C3441      C3442   1.404       .  A
C3441      C3446   1.396       .  A
C3441      H3448   1.082       .  S
C3442      C3443   1.405       .  A
C3443      C3444   1.397       .  A
C3443      F3450   1.358       .  S
C3444      C3445   1.406       .  A
C3444      H3449   1.083       .  S
C3445      C3446   1.406       .  A
C3446      F3447   1.357       .  S
C3451      C3452   1.402       .  A
C3451      C3456   1.397       .  A
C3451      H3458   1.083       .  S
C3452      C3453   1.407       .  A
C3453      C3454   1.396       .  A
C3453      F3460   1.358       .  S
C3454      C3455   1.403       .  A
C3454      H3459   1.082       .  S
C3455      C3456   1.409       .  A
C3456      F3457   1.358       .  S
C3461      C3462   1.407       .  A
C3461      C3466   1.403       .  A
C3461      H3468   1.082       .  S
C3462      C3463   1.408       .  A
C3463      C3464   1.394       .  A
C3463      F3470   1.358       .  S
C3464      C3465   1.403       .  A
C3464      H3469   1.083       .  S
C3465      C3466   1.407       .  A
C3466      F3467   1.357       .  S
C3471      C3472   1.402       .  A
C3471      C3476   1.392       .  A
C3471      H3478   1.083       .  S
C3472      C3473   1.407       .  A
C3473      C3474   1.398       .  A
C3473      F3480   1.357       .  S
C3474      C3475   1.403       .  A
C3474      H3479   1.083       .  S
C3475      C3476   1.408       .  A
C3476      F3477   1.358       .  S
C3481      C3482   1.408       .  A
C3481      C3486   1.402       .  A
C3481      H3488   1.082       .  S
C3482      C3483   1.405       .  A
C3483      C3484   1.393       .  A
C3483      F3490   1.358       .  S
C3484      C3485   1.401       .  A
C3484      H3489   1.083       .  S
C3485      C3486   1.401       .  A
C3486      F3487   1.357       .  S
C3491      C3492   1.405       .  A
C3491      C3496   1.401       .  A
C3491      H3498   1.082       .  S
C3492      C3493   1.409       .  A
C3493      C3494   1.395       .  A
C3493      F3500   1.358       .  S
C3494      C3495   1.403       .  A
C3494      H3499   1.083       .  S
C3495      C3496   1.408       .  A
C3496      F3497   1.357       .  S
C3501      C3502   1.403       .  A
C3501      C3506   1.393       .  A
C3501      H3508   1.083       .  S
C3502      C3503   1.407       .  A
C3503      C3504   1.401       .  A
C3503      F3510   1.357       .  S
C3504      C3505   1.405       .  A
C3504      H3509   1.084       .  S
C3505      C3506   1.406       .  A
C3506      F3507   1.358       .  S
C3511      C3512   1.403       .  A
C3511      C3516   1.399       .  A
C3511      H3518   1.083       .  S
C3512      C3513   1.411       .  A
C3513      C3514   1.399       .  A
C3513      F3520   1.357       .  S
C3514      C3515   1.403       .  A
C3514      H3519   1.083       .  S
C3515      C3516   1.411       .  A
C3516      F3517   1.357       .  S
C3521      C3522   1.408       .  A
C3521      C3526   1.409   1_565  A
C3521      H3528   1.082       .  S
C3522      C3523   1.410       .  A
C3523      C3524   1.398   1_565  A
C3523      F3530   1.358       .  S
C3524      C3525   1.405       .  A
C3524      H3529   1.083       .  S
C3525      C3526   1.410       .  A
C3526      F3527   1.357       .  S
C3531      C3532   1.404       .  A
C3531      C3536   1.399       .  A
C3531      H3538   1.082       .  S
C3532      C3533   1.409       .  A
C3533      C3534   1.398       .  A
C3533      F3540   1.357       .  S
C3534      C3535   1.404       .  A
C3534      H3539   1.082       .  S
C3535      C3536   1.409       .  A
C3536      F3537   1.357       .  S
C3541      C3542   1.405       .  A
C3541      C3546   1.400       .  A
C3541      H3548   1.082       .  S
C3542      C3543   1.408       .  A
C3543      C3544   1.398       .  A
C3543      F3550   1.358       .  S
C3544      C3545   1.405       .  A
C3544      H3549   1.083       .  S
C3545      C3546   1.408       .  A
C3546      F3547   1.357       .  S
C3551      C3552   1.405       .  A
C3551      C3556   1.395   1_545  A
C3551      H3558   1.083       .  S
C3552      C3553   1.409       .  A
C3553      C3554   1.409   1_545  A
C3553      F3560   1.357       .  S
C3554      C3555   1.408       .  A
C3554      H3559   1.082       .  S
C3555      C3556   1.408       .  A
C3556      F3557   1.358       .  S
C3561      C3562   1.404       .  A
C3561      C3566   1.398       .  A
C3561      H3568   1.083       .  S
C3562      C3563   1.409       .  A
C3563      C3564   1.402       .  A
C3563      F3570   1.357       .  S
C3564      C3565   1.404       .  A
C3564      H3569   1.083       .  S
C3565      C3566   1.408       .  A
C3566      F3567   1.358       .  S
C3571      C3572   1.405       .  A
C3571      C3576   1.395       .  A
C3571      H3578   1.082       .  S
C3572      C3573   1.406       .  A
C3573      C3574   1.397       .  A
C3573      F3580   1.357       .  S
C3574      C3575   1.405       .  A
C3574      H3579   1.083       .  S
C3575      C3576   1.405       .  A
C3576      F3577   1.357       .  S
C3581      C3582   1.406       .  A
C3581      C3586   1.401       .  A
C3581      H3588   1.082       .  S
C3582      C3583   1.407       .  A
C3583      C3584   1.395       .  A
C3583      F3590   1.358       .  S
C3584      C3585   1.405       .  A
C3584      H3589   1.083       .  S
C3585      C3586   1.407       .  A
C3586      F3587   1.357       .  S
C3591      C3592   1.406       .  A
C3591      C3596   1.400       .  A
C3591      H3598   1.083       .  S
C3592      C3593   1.406       .  A
C3593      C3594   1.401       .  A
C3593      F3600   1.357       .  S
C3594      C3595   1.408       .  A
C3594      H3599   1.083       .  S
C3595      C3596   1.407       .  A
C3596      F3597   1.357       .  S
C3601      C3602   1.406       .  A
C3601      C3606   1.400       .  A
C3601      H3608   1.083       .  S
C3602      C3603   1.405       .  A
C3603      C3604   1.396       .  A
C3603      F3610   1.358       .  S
C3604      C3605   1.405       .  A
C3604      H3609   1.083       .  S
C3605      C3606   1.406       .  A
C3606      F3607   1.357       .  S
C3611      C3612   1.407       .  A
C3611      C3616   1.402       .  A
C3611      H3618   1.082       .  S
C3612      C3613   1.408       .  A
C3613      C3614   1.396       .  A
C3613      F3620   1.358       .  S
C3614      C3615   1.404       .  A
C3614      H3619   1.082       .  S
C3615      C3616   1.407       .  A
C3616      F3617   1.357       .  S
C3621      C3622   1.403       .  A
C3621      C3626   1.393       .  A
C3621      H3628   1.082       .  S
C3622      C3623   1.408       .  A
C3623      C3624   1.400       .  A
C3623      F3630   1.357       .  S
C3624      C3625   1.405       .  A
C3624      H3629   1.083       .  S
C3625      C3626   1.407       .  A
C3626      F3627   1.358       .  S
C3631      C3632   1.404       .  A
C3631      C3636   1.394       .  A
C3631      H3638   1.083       .  S
C3632      C3633   1.406       .  A
C3633      C3634   1.398       .  A
C3633      F3640   1.357       .  S
C3634      C3635   1.405       .  A
C3634      H3639   1.083       .  S
C3635      C3636   1.405       .  A
C3636      F3637   1.357       .  S
C3641      C3642   1.403       .  A
C3641      C3646   1.399       .  A
C3641      H3648   1.083       .  S
C3642      C3643   1.408       .  A
C3643      C3644   1.397       .  A
C3643      F3650   1.358       .  S
C3644      C3645   1.403       .  A
C3644      H3649   1.083       .  S
C3645      C3646   1.409       .  A
C3646      F3647   1.357       .  S
C3651      C3652   1.404       .  A
C3651      C3656   1.400       .  A
C3651      H3658   1.083       .  S
C3652      C3653   1.410       .  A
C3653      C3654   1.400       .  A
C3653      F3660   1.357       .  S
C3654      C3655   1.404       .  A
C3654      H3659   1.083       .  S
C3655      C3656   1.410       .  A
C3656      F3657   1.357       .  S
C3661      C3662   1.404       .  A
C3661      C3666   1.392       .  A
C3661      H3668   1.082       .  S
C3662      C3663   1.406       .  A
C3663      C3664   1.399       .  A
C3663      F3670   1.357       .  S
C3664      C3665   1.405       .  A
C3664      H3669   1.082       .  S
C3665      C3666   1.406       .  A
C3666      F3667   1.358       .  S
C3671      C3672   1.406       .  A
C3671      C3676   1.399       .  A
C3671      H3678   1.083       .  S
C3672      C3673   1.407       .  A
C3673      C3674   1.398       .  A
C3673      F3680   1.357       .  S
C3674      C3675   1.405       .  A
C3674      H3679   1.083       .  S
C3675      C3676   1.406       .  A
C3676      F3677   1.357       .  S
C3681      C3682   1.405       .  A
C3681      C3686   1.401       .  A
C3681      H3688   1.083       .  S
C3682      C3683   1.408       .  A
C3683      C3684   1.396       .  A
C3683      F3690   1.358       .  S
C3684      C3685   1.403       .  A
C3684      H3689   1.083       .  S
C3685      C3686   1.409       .  A
C3686      F3687   1.357       .  S
C3691      C3692   1.405       .  A
C3691      C3696   1.395       .  A
C3691      H3698   1.082       .  S
C3692      C3693   1.406       .  A
C3693      C3694   1.397       .  A
C3693      F3700   1.357       .  S
C3694      C3695   1.405       .  A
C3694      H3699   1.083       .  S
C3695      C3696   1.406       .  A
C3696      F3697   1.357       .  S
C3701      C3702   1.404       .  A
C3701      C3706   1.394       .  A
C3701      H3708   1.083       .  S
C3702      C3703   1.406       .  A
C3703      C3704   1.398       .  A
C3703      F3710   1.357       .  S
C3704      C3705   1.405       .  A
C3704      H3709   1.083       .  S
C3705      C3706   1.405       .  A
C3706      F3707   1.358       .  S
C3711      C3712   1.407       .  A
C3711      C3716   1.405       .  A
C3711      H3718   1.082       .  S
C3712      C3713   1.407       .  A
C3713      C3714   1.393       .  A
C3713      F3720   1.358       .  S
C3714      C3715   1.403       .  A
C3714      H3719   1.083       .  S
C3715      C3716   1.407       .  A
C3716      F3717   1.357       .  S
C3721      C3722   1.403       .  A
C3721      C3726   1.401       .  A
C3721      H3728   1.083       .  S
C3722      C3723   1.411       .  A
C3723      C3724   1.400       .  A
C3723      F3730   1.357       .  S
C3724      C3725   1.403       .  A
C3724      H3729   1.083       .  S
C3725      C3726   1.411       .  A
C3726      F3727   1.357       .  S
C3731      C3732   1.404       .  A
C3731      C3736   1.399       .  A
C3731      H3738   1.083       .  S
C3732      C3733   1.410       .  A
C3733      C3734   1.399       .  A
C3733      F3740   1.357       .  S
C3734      C3735   1.402       .  A
C3734      H3739   1.083       .  S
C3735      C3736   1.408       .  A
C3736      F3737   1.358       .  S
C3741      C3742   1.405       .  A
C3741      C3746   1.403       .  A
C3741      H3748   1.083       .  S
C3742      C3743   1.409       .  A
C3743      C3744   1.395       .  A
C3743      F3750   1.358       .  S
C3744      C3745   1.403       .  A
C3744      H3749   1.083       .  S
C3745      C3746   1.409       .  A
C3746      F3747   1.357       .  S
C3751      C3752   1.405       .  A
C3751      C3756   1.398       .  A
C3751      H3758   1.083       .  S
C3752      C3753   1.404       .  A
C3753      C3754   1.394       .  A
C3753      F3760   1.358       .  S
C3754      C3755   1.405       .  A
C3754      H3759   1.082       .  S
C3755      C3756   1.406       .  A
C3756      F3757   1.357       .  S
C3761      C3762   1.403       .  A
C3761      C3766   1.398       .  A
C3761      H3768   1.083       .  S
C3762      C3763   1.407       .  A
C3763      C3764   1.395       .  A
C3763      F3770   1.358       .  S
C3764      C3765   1.403       .  A
C3764      H3769   1.083       .  S
C3765      C3766   1.408       .  A
C3766      F3767   1.357       .  S
C3771      C3772   1.403       .  A
C3771      C3776   1.393       .  A
C3771      H3778   1.083       .  S
C3772      C3773   1.408       .  A
C3773      C3774   1.404       .  A
C3773      F3780   1.357       .  S
C3774      C3775   1.406       .  A
C3774      H3779   1.083       .  S
C3775      C3776   1.407       .  A
C3776      F3777   1.358       .  S
C3781      C3782   1.407       .  A
C3781      C3786   1.401       .  A
C3781      H3788   1.082       .  S
C3782      C3783   1.408       .  A
C3783      C3784   1.399       .  A
C3783      F3790   1.357       .  S
C3784      C3785   1.404       .  A
C3784      H3789   1.083       .  S
C3785      C3786   1.404       .  A
C3786      F3787   1.357       .  S
C3791      C3792   1.404       .  A
C3791      C3796   1.398       .  A
C3791      H3798   1.082       .  S
C3792      C3793   1.407       .  A
C3793      C3794   1.392       .  A
C3793      F3800   1.358       .  S
C3794      C3795   1.402       .  A
C3794      H3799   1.083       .  S
C3795      C3796   1.407       .  A
C3796      F3797   1.357       .  S
C3801      C3802   1.406       .  A
C3801      C3806   1.406       .  A
C3801      H3808   1.083       .  S
C3802      C3803   1.406       .  A
C3803      C3804   1.390       .  A
C3803      F3810   1.358       .  S
C3804      C3805   1.404       .  A
C3804      H3809   1.083       .  S
C3805      C3806   1.408       .  A
C3806      F3807   1.357       .  S
C3811      C3812   1.404       .  A
C3811      C3816   1.402       .  A
C3811      H3818   1.083       .  S
C3812      C3813   1.407       .  A
C3813      C3814   1.394       .  A
C3813      F3820   1.358       .  S
C3814      C3815   1.404       .  A
C3814      H3819   1.083       .  S
C3815      C3816   1.409       .  A
C3816      F3817   1.357       .  S
C3821      C3822   1.403       .  A
C3821      C3826   1.396       .  A
C3821      H3828   1.082       .  S
C3822      C3823   1.409       .  A
C3823      C3824   1.397       .  A
C3823      F3830   1.358       .  S
C3824      C3825   1.402       .  A
C3824      H3829   1.083       .  S
C3825      C3826   1.406       .  A
C3826      F3827   1.358       .  S
C3831      C3832   1.404       .  A
C3831      C3836   1.395       .  A
C3831      H3838   1.083       .  S
C3832      C3833   1.406       .  A
C3833      C3834   1.398       .  A
C3833      F3840   1.357       .  S
C3834      C3835   1.406       .  A
C3834      H3839   1.083       .  S
C3835      C3836   1.407       .  A
C3836      F3837   1.357       .  S
C3841      C3842   1.407       .  A
C3841      C3846   1.403       .  A
C3841      H3848   1.082       .  S
C3842      C3843   1.408       .  A
C3843      C3844   1.395       .  A
C3843      F3850   1.358       .  S
C3844      C3845   1.404       .  A
C3844      H3849   1.083       .  S
C3845      C3846   1.407       .  A
C3846      F3847   1.357       .  S
C3851      C3852   1.404       .  A
C3851      C3856   1.402       .  A
C3851      H3858   1.083       .  S
C3852      C3853   1.410       .  A
C3853      C3854   1.400       .  A
C3853      F3860   1.357       .  S
C3854      C3855   1.404       .  A
C3854      H3859   1.083       .  S
C3855      C3856   1.411       .  A
C3856      F3857   1.357       .  S
C3861      C3862   1.406       .  A
C3861      C3866   1.398       .  A
C3861      H3868   1.083       .  S
C3862      C3863   1.406       .  A
C3863      C3864   1.399       .  A
C3863      F3870   1.357       .  S
C3864      C3865   1.406       .  A
C3864      H3869   1.083       .  S
C3865      C3866   1.406       .  A
C3866      F3867   1.357       .  S
C3871      C3872   1.403       .  A
C3871      C3876   1.396       .  A
C3871      H3878   1.082       .  S
C3872      C3873   1.410       .  A
C3873      C3874   1.401       .  A
C3873      F3880   1.357       .  S
C3874      C3875   1.403       .  A
C3874      H3879   1.082       .  S
C3875      C3876   1.408       .  A
C3876      F3877   1.358       .  S
C3881      C3882   1.405       .  A
C3881      C3886   1.398       .  A
C3881      H3888   1.083       .  S
C3882      C3883   1.406       .  A
C3883      C3884   1.394       .  A
C3883      F3890   1.358       .  S
C3884      C3885   1.404       .  A
C3884      H3889   1.083       .  S
C3885      C3886   1.406       .  A
C3886      F3887   1.357       .  S
C3891      C3892   1.405       .  A
C3891      C3896   1.396       .  A
C3891      H3898   1.083       .  S
C3892      C3893   1.406       .  A
C3893      C3894   1.396       .  A
C3893      F3900   1.358       .  S
C3894      C3895   1.405       .  A
C3894      H3899   1.083       .  S
C3895      C3896   1.406       .  A
C3896      F3897   1.357       .  S
C3901      C3902   1.406       .  A
C3901      C3906   1.401       .  A
C3901      H3908   1.082       .  S
C3902      C3903   1.407       .  A
C3903      C3904   1.395       .  A
C3903      F3910   1.358       .  S
C3904      C3905   1.405       .  A
C3904      H3909   1.082       .  S
C3905      C3906   1.406       .  A
C3906      F3907   1.357       .  S
C3911      C3912   1.407       .  A
C3911      C3916   1.400       .  A
C3911      H3918   1.083       .  S
C3912      C3913   1.406       .  A
C3913      C3914   1.399       .  A
C3913      F3920   1.357       .  S
C3914      C3915   1.407       .  A
C3914      H3919   1.083       .  S
C3915      C3916   1.406       .  A
C3916      F3917   1.357       .  S
C3921      C3922   1.403       .  A
C3921      C3926   1.393       .  A
C3921      H3928   1.083       .  S
C3922      C3923   1.407       .  A
C3923      C3924   1.396       .  A
C3923      F3930   1.357       .  S
C3924      C3925   1.404       .  A
C3924      H3929   1.083       .  S
C3925      C3926   1.407       .  A
C3926      F3927   1.358       .  S
C3931      C3932   1.402       .  A
C3931      C3936   1.390       .  A
C3931      H3938   1.084       .  S
C3932      C3933   1.407       .  A
C3933      C3934   1.405       .  A
C3933      F3940   1.357       .  S
C3934      C3935   1.406       .  A
C3934      H3939   1.083       .  S
C3935      C3936   1.407       .  A
C3936      F3937   1.358       .  S
C3941      C3942   1.403       .  A
C3941      C3946   1.401       .  A
C3941      H3948   1.083       .  S
C3942      C3943   1.406       .  A
C3943      C3944   1.395       .  A
C3943      F3950   1.358       .  S
C3944      C3945   1.404       .  A
C3944      H3949   1.083       .  S
C3945      C3946   1.409       .  A
C3946      F3947   1.357       .  S
C3951      C3952   1.401       .  A
C3951      C3956   1.397       .  A
C3951      H3958   1.083       .  S
C3952      C3953   1.403       .  A
C3953      C3954   1.396       .  A
C3953      F3960   1.358       .  S
C3954      C3955   1.402       .  A
C3954      H3959   1.083       .  S
C3955      C3956   1.405       .  A
C3956      F3957   1.358       .  S
