geometry optimzed in LAMMPS
_audit_creation_date              2020-11-30 
_audit_creation_method            'lammps2cif' 
_symmetry_space_group_name_H-M    'P1' 
_symmetry_Int_Tables_number       1 
_symmetry_cell_setting            triclinic 
loop_ 
_symmetry_equiv_pos_as_xyz 
  x,y,z 
_cell_length_a                    43.57509617 
_cell_length_b                    43.53758103471799 
_cell_length_c                    43.49044782198113 
_cell_angle_alpha                 89.90857332774354 
_cell_angle_beta                  90.26837064785742 
_cell_angle_gamma                 89.57572479375791 
loop_ 
_atom_site_label 
_atom_site_type_symbol 
_atom_site_fract_x 
_atom_site_fract_y 
_atom_site_fract_z 
_atom_site_charge 
O1          O  0.02475629  0.00121485  0.08303406    -0.71700
O2          O  0.02425871  0.49734648  0.17031491    -0.71900
O3          O  0.02374406  0.45584358  0.12493753    -0.71700
O4          O  0.02510045  0.04305049  0.12834206    -0.71800
O5          O  0.47541003  0.04381545  0.12518813    -0.71700
O6          O  0.47403238  0.45686495  0.12759177    -0.71700
O7          O  0.47478733  0.00166699  0.16986388    -0.71700
O8          O  0.47483507  0.49928989  0.08274368    -0.71900
V9          V  0.02342957  0.49941440  0.12671651     1.35200
V10         V  0.47558991  0.50037560  0.12637361     1.35200
C11         C  0.49973830  0.50034688  0.06797153     0.77600
C12         C  0.49933549  0.49940034  0.18492576     0.77600
C13         C  0.99866369  0.44143440  0.12618190     0.77500
C14         C  0.00032105  0.05837059  0.12686055     0.77500
O15         O  0.47517894  0.24970696  0.16678592    -0.71700
O16         O  0.47428004  0.25009351  0.07956159    -0.71900
O17         O  0.47540732  0.20623035  0.12321175    -0.71700
O18         O  0.47426441  0.29353494  0.12341423    -0.71800
O19         O  0.02406040  0.29352170  0.12348012    -0.71700
O20         O  0.02515838  0.20653451  0.12239504    -0.71700
O21         O  0.02403062  0.25070755  0.07934098    -0.71700
O22         O  0.02501389  0.24910943  0.16657547    -0.71900
V23         V  0.47572915  0.24988165  0.12320623     1.35200
V24         V  0.02358376  0.25001277  0.12293817     1.35200
C25         C  0.00021846  0.24896933  0.18155087     0.77600
C26         C  0.99900669  0.25055595  0.06448519     0.77600
C27         C  0.50053733  0.19144435  0.12302999     0.77500
C28         C  0.49907672  0.30844419  0.12349380     0.77500
O29         O  0.22466109  0.45844263  0.12348029    -0.71700
O30         O  0.22353170  0.04555525  0.12446042    -0.71900
O31         O  0.22462191  0.50267212  0.08042899    -0.71700
O32         O  0.22320595  0.00103887  0.16740900    -0.71800
O33         O  0.27287439  0.50365861  0.16870397    -0.71700
O34         O  0.27513824  0.00155827  0.08159545    -0.71700
O35         O  0.27331154  0.04600249  0.12430619    -0.71700
O36         O  0.27436831  0.45891831  0.12617586    -0.71900
V37         V  0.22478690  0.50193753  0.12408259     1.35200
V38         V  0.27305760  0.00245016  0.12517444     1.35200
C39         C  0.24974869  0.44374123  0.12501030     0.77600
C40         C  0.24816458  0.06069737  0.12447165     0.77600
C41         C  0.25066900  0.00218216  0.06587288     0.77500
C42         C  0.24778824  0.00227012  0.18288536     0.77500
O43         O  0.22297766  0.25293574  0.17048345    -0.71700
O44         O  0.22394467  0.25153369  0.08325833    -0.71900
O45         O  0.22346653  0.20866493  0.12754753    -0.71700
O46         O  0.22350520  0.29580736  0.12610880    -0.71800
O47         O  0.27321889  0.29544971  0.12868596    -0.71700
O48         O  0.27323797  0.20840153  0.12649600    -0.71700
O49         O  0.27367226  0.25297834  0.08396374    -0.71700
O50         O  0.27278659  0.25031306  0.17121124    -0.71900
V51         V  0.22442361  0.25224998  0.12687141     1.35200
V52         V  0.27227235  0.25186317  0.12758472     1.35200
C53         C  0.24771483  0.25116817  0.18569548     0.77600
C54         C  0.24894587  0.25212611  0.06864240     0.77600
C55         C  0.24840517  0.19362220  0.12702051     0.77500
C56         C  0.24834777  0.31057783  0.12735993     0.77500
O57         O  0.02689721  0.99910384  0.83227772    -0.71700
O58         O  0.02711738  0.50027078  0.91969456    -0.71900
O59         O  0.02642965  0.45619031  0.87649830    -0.71700
O60         O  0.02755348  0.04340984  0.87551763    -0.71800
O61         O  0.47778553  0.04422440  0.87704862    -0.71700
O62         O  0.47669866  0.45724444  0.87439951    -0.71700
O63         O  0.47736306  0.99945117  0.91940740    -0.71700
O64         O  0.47723500  0.50220040  0.83220931    -0.71900
V65         V  0.02608304  0.49979885  0.87605299     1.35200
V66         V  0.47824088  0.50073854  0.87584376     1.35200
C67         C  0.50209082  0.50048273  0.81740364     0.77600
C68         C  0.50226373  0.49980979  0.93456565     0.77600
C69         C  0.00134342  0.44180005  0.87505267     0.77500
C70         C  0.00280112  0.05874300  0.87645299     0.77500
O71         O  0.47618728  0.24991982  0.91604243    -0.71700
O72         O  0.47626921  0.25140450  0.82881752    -0.71900
O73         O  0.47612682  0.20692738  0.87190775    -0.71700
O74         O  0.47658292  0.29416551  0.87303049    -0.71800
O75         O  0.02632398  0.29334140  0.87110794    -0.71700
O76         O  0.02585450  0.20636448  0.87460784    -0.71700
O77         O  0.02606559  0.24789633  0.82910183    -0.71700
O78         O  0.02591670  0.25148637  0.91633321    -0.71900
V79         V  0.47723071  0.25055470  0.87243697     1.35200
V80         V  0.02508531  0.24983164  0.87273958     1.35200
C81         C  0.00102714  0.25083829  0.93114715     0.77600
C82         C  0.00115911  0.24943502  0.81413696     0.77600
C83         C  0.50093427  0.19170455  0.87361568     0.77500
C84         C  0.50161329  0.30866958  0.87214680     0.77500
O85         O  0.22469741  0.45813557  0.87468950    -0.71700
O86         O  0.22783923  0.04522293  0.87219046    -0.71900
O87         O  0.22561498  0.50079044  0.82990481    -0.71700
O88         O  0.22687485  0.00269632  0.91691324    -0.71800
O89         O  0.27465310  0.50192086  0.91789815    -0.71700
O90         O  0.27740083  0.99894944  0.83033357    -0.71700
O91         O  0.27765452  0.04430230  0.87259673    -0.71700
O92         O  0.27446485  0.45717919  0.87553850    -0.71900
V93         V  0.22621491  0.50171485  0.87352689     1.35200
V94         V  0.27608089  0.00068276  0.87402789     1.35200
C95         C  0.24938926  0.44271634  0.87556363     0.77600
C96         C  0.25288855  0.05965181  0.87197662     0.77600
C97         C  0.25254966  0.99938979  0.81518234     0.77500
C98         C  0.25154988  0.00265960  0.93231251     0.77500
O99         O  0.22682371  0.24990047  0.92033972    -0.71700
O100        O  0.22588601  0.25141951  0.83322012    -0.71900
O101        O  0.22717723  0.20707101  0.87585069    -0.71700
O102        O  0.22586810  0.29442989  0.87749797    -0.71800
O103        O  0.27563130  0.29457180  0.87715247    -0.71700
O104        O  0.27699323  0.20758368  0.87603983    -0.71700
O105        O  0.27579453  0.25198763  0.83293900    -0.71700
O106        O  0.27658093  0.25044886  0.92031148    -0.71900
V107        V  0.22739774  0.25072025  0.87676965     1.35200
V108        V  0.27527615  0.25111164  0.87662096     1.35200
C109        C  0.25177657  0.25002603  0.93529381     0.77600
C110        C  0.25065548  0.25200387  0.81833141     0.77600
C111        C  0.25237636  0.19243590  0.87560062     0.77500
C112        C  0.25064088  0.30945232  0.87729727     0.77500
O113        O  0.99896049  0.02561142  0.41887042    -0.71700
O114        O  0.49792732  0.02408778  0.33157933    -0.71900
O115        O  0.45495859  0.02443458  0.37527859    -0.71700
O116        O  0.04202535  0.02540067  0.37482638    -0.71800
O117        O  0.04313545  0.47564807  0.37737240    -0.71700
O118        O  0.45595456  0.47461287  0.37506428    -0.71700
O119        O  0.00065674  0.47428815  0.33263025    -0.71700
O120        O  0.49870215  0.47581561  0.41977429    -0.71900
V121        V  0.49850056  0.02391662  0.37519175     1.35200
V122        V  0.49955464  0.47604275  0.37620819     1.35200
C123        C  0.49897415  0.50092009  0.43434692     0.77600
C124        C  0.49941728  0.49892166  0.31729814     0.77600
C125        C  0.44048734  0.99937568  0.37476754     0.77500
C126        C  0.05746149  0.00072077  0.37604082     0.77500
O127        O  0.49866526  0.22150363  0.41613174    -0.71700
O128        O  0.00003323  0.22124922  0.32877427    -0.71900
O129        O  0.04273713  0.22119638  0.37329282    -0.71700
O130        O  0.45552445  0.22173599  0.37171574    -0.71800
O131        O  0.45559619  0.27152214  0.37323315    -0.71700
O132        O  0.04253212  0.27097570  0.37134553    -0.71700
O133        O  0.49768468  0.27117295  0.32868875    -0.71700
O134        O  0.00009503  0.27128546  0.41590892    -0.71900
V135        V  0.99918428  0.22234641  0.37244786     1.35200
V136        V  0.99901404  0.27024901  0.37227543     1.35200
C137        C  0.99955744  0.24641803  0.43097088     0.77600
C138        C  0.99881032  0.24620264  0.31393289     0.77600
C139        C  0.05757143  0.24603459  0.37244268     0.77500
C140        C  0.44062460  0.24680124  0.37260896     0.77500
O141        O  0.20574534  0.47566839  0.37511538    -0.71700
O142        O  0.29276004  0.47595099  0.37214736    -0.71900
O143        O  0.25081948  0.47536973  0.41714005    -0.71700
O144        O  0.24742096  0.47634771  0.32992046    -0.71800
O145        O  0.24914976  0.02623384  0.33039928    -0.71700
O146        O  0.24835182  0.02512912  0.41759140    -0.71700
O147        O  0.29228265  0.02575302  0.37435015    -0.71700
O148        O  0.20506787  0.02549021  0.37347854    -0.71900
V149        V  0.24920829  0.47679335  0.37356382     1.35200
V150        V  0.24870088  0.02470123  0.37395262     1.35200
C151        C  0.19045571  0.00050263  0.37467209     0.77600
C152        C  0.30740032  0.00088827  0.37294001     0.77600
C153        C  0.24971215  0.50005755  0.43237467     0.77500
C154        C  0.24825932  0.50147798  0.31535170     0.77500
O155        O  0.20564642  0.22332933  0.37576209    -0.71700
O156        O  0.29255322  0.22274385  0.37830580    -0.71900
O157        O  0.24812622  0.22426634  0.42078861    -0.71700
O158        O  0.25032770  0.22214011  0.33337302    -0.71800
O159        O  0.24731087  0.27198435  0.33241396    -0.71700
O160        O  0.25057930  0.27397830  0.41947792    -0.71700
O161        O  0.29267159  0.27241513  0.37459036    -0.71700
O162        O  0.20545350  0.27313106  0.37701863    -0.71900
V163        V  0.24913197  0.22406584  0.37707235     1.35200
V164        V  0.24903989  0.27193241  0.37592920     1.35200
C165        C  0.19061753  0.24827937  0.37600978     0.77600
C166        C  0.30755362  0.24736470  0.37629967     0.77600
C167        C  0.24956302  0.24952370  0.43511087     0.77500
C168        C  0.24861920  0.24682490  0.31806687     0.77500
O169        O  0.50164540  0.47362305  0.67000127    -0.71700
O170        O  0.99910640  0.47403707  0.58265657    -0.71900
O171        O  0.04373983  0.47360553  0.62518267    -0.71700
O172        O  0.45664672  0.47400025  0.62725092    -0.71800
O173        O  0.45659478  0.02374078  0.62542980    -0.71700
O174        O  0.04370707  0.02329370  0.62724591    -0.71700
O175        O  0.50087623  0.02374722  0.58267619    -0.71700
O176        O  0.99908280  0.02341439  0.66990447    -0.71900
V177        V  0.00024022  0.47476063  0.62629673     1.35200
V178        V  0.00010831  0.02258405  0.62630973     1.35200
C179        C  0.00031350  0.99844901  0.68470382     0.77600
C180        C  0.00012250  0.99891794  0.56763270     0.77600
C181        C  0.05860899  0.49840807  0.62597088     0.77500
C182        C  0.44165963  0.49899989  0.62650366     0.77500
O183        O  0.00079996  0.22418123  0.57956203    -0.71700
O184        O  0.50181992  0.22471506  0.66690161    -0.71900
O185        O  0.45756915  0.22416682  0.62369140    -0.71700
O186        O  0.04485332  0.22495415  0.62314934    -0.71800
O187        O  0.04384876  0.27479456  0.62291845    -0.71700
O188        O  0.45684310  0.27398400  0.62274536    -0.71700
O189        O  0.00020572  0.27458489  0.66647146    -0.71700
O190        O  0.50017213  0.27401194  0.57913639    -0.71900
V191        V  0.50123088  0.22546816  0.62326591     1.35200
V192        V  0.50032326  0.27336966  0.62282172     1.35200
C193        C  0.50030930  0.24899904  0.56438238     0.77600
C194        C  0.50092299  0.24972914  0.68158363     0.77600
C195        C  0.44227819  0.24900834  0.62358031     0.77500
C196        C  0.05926215  0.25008541  0.62317732     0.77500
O197        O  0.20664988  0.47446556  0.62517460    -0.71700
O198        O  0.29368907  0.47396610  0.62280338    -0.71900
O199        O  0.25179303  0.47348875  0.66770795    -0.71700
O200        O  0.24881158  0.47502493  0.58038136    -0.71800
O201        O  0.25087422  0.02470594  0.58101544    -0.71700
O202        O  0.24924101  0.02322174  0.66818631    -0.71700
O203        O  0.29379861  0.02360048  0.62565032    -0.71700
O204        O  0.20664252  0.02417509  0.62375674    -0.71900
V205        V  0.25020916  0.47518309  0.62402792     1.35200
V206        V  0.25018193  0.02297506  0.62461568     1.35200
C207        C  0.19178064  0.99936176  0.62467308     0.77600
C208        C  0.30873223  0.99860482  0.62409297     0.77600
C209        C  0.25026527  0.49821815  0.68283783     0.77500
C210        C  0.24974396  0.50016659  0.56578995     0.77500
O211        O  0.25078709  0.22599119  0.58392730    -0.71700
O212        O  0.25092151  0.22675780  0.67105563    -0.71900
O213        O  0.20744185  0.22617829  0.62751573    -0.71700
O214        O  0.29449369  0.22654113  0.62758270    -0.71800
O215        O  0.29400950  0.27635979  0.62697266    -0.71700
O216        O  0.20675226  0.27601325  0.62672593    -0.71700
O217        O  0.25040958  0.27658779  0.67067755    -0.71700
O218        O  0.25035544  0.27579759  0.58321361    -0.71900
V219        V  0.25093285  0.22736385  0.62750326     1.35200
V220        V  0.25040217  0.27525373  0.62694210     1.35200
C221        C  0.25044715  0.25068401  0.56859921     0.77600
C222        C  0.25038068  0.25172937  0.68580791     0.77600
C223        C  0.19218616  0.25097516  0.62713609     0.77500
C224        C  0.30918785  0.25147583  0.62707612     0.77500
C225        C  0.40823872  0.24922720  0.62455360    -0.05400
C226        C  0.39215831  0.27663111  0.61815293    -0.32800
C227        C  0.36006338  0.27780435  0.61894651     0.36500
C228        C  0.34324383  0.25127148  0.62643533    -0.05700
C229        C  0.35932846  0.22390274  0.63297451    -0.32700
C230        C  0.39144082  0.22276799  0.63229814     0.36400
H231        H  0.40447838  0.29731731  0.61220890     0.16700
O232        O  0.34548526  0.30502860  0.61216732    -0.60200
H233        H  0.34699438  0.20323750  0.63895624     0.16800
O234        O  0.40606217  0.19567924  0.63950073    -0.60300
H235        H  0.40956239  0.19649996  0.66203952     0.43700
H236        H  0.34226182  0.30471389  0.58957398     0.43700
C237        C  0.15818291  0.25069141  0.62676800    -0.05400
C238        C  0.14189788  0.27673660  0.61651466    -0.32800
C239        C  0.10980541  0.27676779  0.61489607     0.36500
C240        C  0.09326407  0.25054188  0.62396225    -0.05700
C241        C  0.10954572  0.22455952  0.63439723    -0.32700
C242        C  0.14163528  0.22454289  0.63605792     0.36400
H243        H  0.15409072  0.29704315  0.60915700     0.16700
O244        O  0.09493770  0.30247993  0.60402255    -0.60200
H245        H  0.09734876  0.20426494  0.64178297     0.16800
O246        O  0.15649532  0.19889134  0.64709839    -0.60300
H247        H  0.15921619  0.20262507  0.66942312     0.43700
H248        H  0.09257718  0.29906051  0.58160893     0.43700
C249        C  0.34277550  0.99834967  0.62453524    -0.05400
C250        C  0.35858840  0.02515522  0.63269266    -0.32800
C251        C  0.39069608  0.02567744  0.63353494     0.36500
C252        C  0.40765044  0.49912084  0.62637966    -0.05700
C253        C  0.39185619  0.47228018  0.61836691    -0.32700
C254        C  0.35974526  0.47173548  0.61760086     0.36400
H255        H  0.34604612  0.04584033  0.63874321     0.16700
O256        O  0.40508246  0.05207589  0.64267237    -0.60200
H257        H  0.40443054  0.45161422  0.61230778     0.16800
O258        O  0.34540617  0.44519632  0.60880999    -0.60300
H259        H  0.34434656  0.43249879  0.62773148     0.43700
H260        H  0.40587104  0.06515746  0.62400028     0.43700
C261        C  0.09265297  0.49835288  0.62537840    -0.05400
C262        C  0.10859546  0.02567548  0.63113651    -0.32800
C263        C  0.14069385  0.02641442  0.63106288     0.36500
C264        C  0.15774958  0.99942029  0.62503628    -0.05700
C265        C  0.14181881  0.47212379  0.61911147    -0.32700
C266        C  0.10971627  0.47138800  0.61913895     0.36400
H267        H  0.09608905  0.04671450  0.63592677     0.16700
O268        O  0.15504571  0.05369461  0.63709384    -0.60200
H269        H  0.15435145  0.45111135  0.61426376     0.16800
O270        O  0.09538475  0.44412358  0.61297187    -0.60300
H271        H  0.09255624  0.44382951  0.59032987     0.43700
H272        H  0.15827474  0.05389475  0.65968654     0.43700
C273        C  0.24998290  0.25029203  0.46925663    -0.05400
C274        C  0.24544712  0.22297697  0.48578113    -0.32800
C275        C  0.24539818  0.22276465  0.51794123     0.36500
C276        C  0.25018542  0.25022031  0.53446194    -0.05700
C277        C  0.25475103  0.27757773  0.51797233    -0.32700
C278        C  0.25485167  0.27778016  0.48575788     0.36400
H279        H  0.24165946  0.20155308  0.47375899     0.16700
O280        O  0.24059097  0.19546646  0.53287948    -0.60200
H281        H  0.25853859  0.29896852  0.53005773     0.16800
O282        O  0.25967073  0.30505492  0.47077130    -0.60300
H283        H  0.28225682  0.30667045  0.46885206     0.43700
H284        H  0.21802491  0.19400098  0.53509583     0.43700
C285        C  0.24951323  0.50056753  0.53166276    -0.05400
C286        C  0.25129556  0.47268129  0.51553643    -0.32800
C287        C  0.25156128  0.47209634  0.48338273     0.36500
C288        C  0.24976214  0.49977728  0.46650004    -0.05700
C289        C  0.24759592  0.02765049  0.48251964    -0.32700
C290        C  0.24731697  0.02822070  0.51469200     0.36400
H291        H  0.25270921  0.45107200  0.52786570     0.16700
O292        O  0.25328531  0.44421831  0.46882607    -0.60200
H293        H  0.24609015  0.04925088  0.47018298     0.16800
O294        O  0.24524633  0.05605722  0.52929053    -0.60300
H295        H  0.22295159  0.06036902  0.53098236     0.43700
H296        H  0.27551882  0.43953944  0.46731007     0.43700
C297        C  0.99996327  0.24860004  0.53022087    -0.05400
C298        C  0.00715159  0.22127910  0.51455597    -0.32800
C299        C  0.00730866  0.22021020  0.48237122     0.36500
C300        C  0.99984486  0.24670337  0.46507647    -0.05700
C301        C  0.49267781  0.27402650  0.48073939    -0.32700
C302        C  0.49254602  0.27511084  0.51290620     0.36400
H303        H  0.01307900  0.20064539  0.52728329     0.16700
O304        O  0.01511697  0.19317397  0.46816288    -0.60200
H305        H  0.48677153  0.29466468  0.46800581     0.16800
O306        O  0.48493679  0.30222901  0.52705675    -0.60300
H307        H  0.46239508  0.30147098  0.52984347     0.43700
H308        H  0.03760289  0.19424586  0.46508016     0.43700
C309        C  0.40658059  0.24719551  0.37325930    -0.05400
C310        C  0.39061007  0.21948984  0.37647807    -0.32800
C311        C  0.35853570  0.21914648  0.37786881     0.36500
C312        C  0.34160435  0.24688216  0.37566571    -0.05700
C313        C  0.35758803  0.27457411  0.37242456    -0.32700
C314        C  0.38965111  0.27492345  0.37113038     0.36400
H315        H  0.40300487  0.19788827  0.37821223     0.16700
O316        O  0.34409814  0.19144717  0.38110092    -0.60200
H317        H  0.34521831  0.29619024  0.37070660     0.16800
O318        O  0.40408383  0.30262541  0.36792015    -0.60300
H319        H  0.40556559  0.30598983  0.34542550     0.43700
H320        H  0.34315088  0.18781581  0.40358306     0.43700
C321        C  0.15658581  0.24809037  0.37493718    -0.05400
C322        C  0.14102969  0.22009342  0.37800388    -0.32800
C323        C  0.10895814  0.21896212  0.37716699     0.36500
C324        C  0.09162155  0.24617211  0.37295960    -0.05700
C325        C  0.10719251  0.27413425  0.36962012    -0.32700
C326        C  0.13927032  0.27525399  0.37043906     0.36400
H327        H  0.15373896  0.19885481  0.38131856     0.16700
O328        O  0.09493851  0.19104947  0.38042529    -0.60200
H329        H  0.09449046  0.29536766  0.36625132     0.16800
O330        O  0.15332785  0.30309922  0.36682227    -0.60300
H331        H  0.15613452  0.30546346  0.34432410     0.43700
H332        H  0.09255252  0.18817593  0.40291380     0.43700
C333        C  0.00014741  0.99922295  0.53350254    -0.05400
C334        C  0.49669479  0.02724474  0.51770374    -0.32800
C335        C  0.49643395  0.02831846  0.48551097     0.36500
C336        C  0.49941648  0.50100739  0.46847272    -0.05700
C337        C  0.00320077  0.47307288  0.48430515    -0.32700
C338        C  0.00356806  0.47201614  0.51644654     0.36400
H339        H  0.49405090  0.04853378  0.53031225     0.16700
O340        O  0.49267119  0.05619200  0.47119149    -0.60200
H341        H  0.00605893  0.45177349  0.47175801     0.16800
O342        O  0.00822720  0.44424172  0.53071796    -0.60300
H343        H  0.98772305  0.43451391  0.53136052     0.43700
H344        H  0.51359703  0.06490506  0.46987410     0.43700
C345        C  0.34143160  0.00072738  0.37272700    -0.05400
C346        C  0.35750665  0.47352887  0.38024854    -0.32800
C347        C  0.38962712  0.47262874  0.38082350     0.36500
C348        C  0.40644186  0.99929481  0.37387856    -0.05700
C349        C  0.39044172  0.02639718  0.36611208    -0.32700
C350        C  0.35830621  0.02728441  0.36549901     0.36400
H351        H  0.34507778  0.45286595  0.38604251     0.16700
O352        O  0.40416298  0.44580186  0.38911593    -0.60200
H353        H  0.40286667  0.04705647  0.36029469     0.16800
O354        O  0.34372219  0.05397888  0.35683153    -0.60300
H355        H  0.34309877  0.06678470  0.37564026     0.43700
H356        H  0.40532138  0.43353409  0.36998184     0.43700
C357        C  0.15645769  0.00038388  0.37548437    -0.05400
C358        C  0.14001426  0.02681998  0.36658764    -0.32800
C359        C  0.10789853  0.02729539  0.36662406     0.36500
C360        C  0.09148010  0.00106599  0.37591829    -0.05700
C361        C  0.10800977  0.47468311  0.38498208    -0.32700
C362        C  0.14012878  0.47423242  0.38501665     0.36400
H363        H  0.15207300  0.04716918  0.35912626     0.16700
O364        O  0.09288970  0.05349340  0.35721521    -0.60200
H365        H  0.09595632  0.45432296  0.39242382     0.16800
O366        O  0.15515385  0.44814481  0.39471839    -0.60300
H367        H  0.15847113  0.45104824  0.41709378     0.43700
H368        H  0.08972362  0.05092236  0.33478420     0.43700
C369        C  0.24975348  0.25179780  0.71987545    -0.05400
C370        C  0.25724859  0.27870471  0.73604584    -0.32800
C371        C  0.25770103  0.27899295  0.76824398     0.36500
C372        C  0.25016187  0.25233395  0.78467243    -0.05700
C373        C  0.24190301  0.22571728  0.76880246    -0.32700
C374        C  0.24170508  0.22522409  0.73665071     0.36400
H375        H  0.26314092  0.29947868  0.72373981     0.16700
O376        O  0.26464348  0.30563873  0.78347829    -0.60200
H377        H  0.23582990  0.20515887  0.78141183     0.16800
O378        O  0.23354731  0.19863298  0.72195425    -0.60300
H379        H  0.21098107  0.20007403  0.71928702     0.43700
H380        H  0.28716637  0.30490363  0.78667019     0.43700
C381        C  0.25071087  0.49859189  0.78145668    -0.05400
C382        C  0.22995329  0.01539628  0.76508849    -0.32800
C383        C  0.22927933  0.01536715  0.73294731     0.36500
C384        C  0.24994129  0.49792368  0.71665336    -0.05700
C385        C  0.27175083  0.48044222  0.73295396    -0.32700
C386        C  0.27260267  0.48111683  0.76516940     0.36400
H387        H  0.21312253  0.02899690  0.77742292     0.16700
O388        O  0.20727835  0.03238372  0.71782316    -0.60200
H389        H  0.28857047  0.46678657  0.72066542     0.16800
O390        O  0.29418328  0.46378282  0.78051794    -0.60300
H391        H  0.31295935  0.47651681  0.78080876     0.43700
H392        H  0.19038155  0.01784540  0.71351463     0.43700
C393        C  0.25047113  0.34354507  0.87704892    -0.05400
C394        C  0.22274591  0.35971180  0.88101057    -0.32800
C395        C  0.22194689  0.39188819  0.88077910     0.36500
C396        C  0.24921040  0.40863972  0.87637351    -0.05700
C397        C  0.27690680  0.39244826  0.87249066    -0.32700
C398        C  0.27770166  0.36034704  0.87258106     0.36400
H399        H  0.20151219  0.34740681  0.88443479     0.16700
O400        O  0.19431577  0.40659967  0.88476709    -0.60200
H401        H  0.29816407  0.40468630  0.86896013     0.16800
O402        O  0.30533122  0.34575661  0.86813893    -0.60300
H403        H  0.30709169  0.34327139  0.84555931     0.43700
H404        H  0.19222093  0.40914366  0.90730662     0.43700
C405        C  0.25311402  0.09362220  0.87165458    -0.05400
C406        C  0.27858556  0.10934130  0.88346379    -0.32800
C407        C  0.27859491  0.14144980  0.88512026     0.36500
C408        C  0.25299837  0.15848186  0.87444261    -0.05700
C409        C  0.22772388  0.14276213  0.86224023    -0.32700
C410        C  0.22770650  0.11068233  0.86060245     0.36400
H411        H  0.29827610  0.09668438  0.89221862     0.16700
O412        O  0.30348941  0.15584528  0.89785088    -0.60200
H413        H  0.20798388  0.15540061  0.85356995     0.16800
O414        O  0.20275912  0.09630151  0.84796050    -0.60300
H415        H  0.20796720  0.09333494  0.82599038     0.43700
H416        H  0.29847518  0.15822971  0.91993470     0.43700
C417        C  0.00077596  0.24981240  0.71552229    -0.05400
C418        C  0.01646450  0.22653501  0.73172807    -0.32800
C419        C  0.01712421  0.22643192  0.76392559     0.36500
C420        C  0.00107129  0.24919036  0.78033681    -0.05700
C421        C  0.48468602  0.27192946  0.76426269    -0.32700
C422        C  0.48491644  0.27271314  0.73208241     0.36400
H423        H  0.02864070  0.20863500  0.71939923     0.16700
O424        O  0.03241593  0.20329631  0.77916528    -0.60200
H425        H  0.47211956  0.28947896  0.77671260     0.16800
O426        O  0.46859241  0.29525849  0.71702988    -0.60300
H427        H  0.48237590  0.31329426  0.71661072     0.43700
H428        H  0.05399010  0.21025245  0.78067793     0.43700
C429        C  0.00031010  0.99853166  0.71849480    -0.05400
C430        C  0.02401813  0.48357994  0.73470257    -0.32800
C431        C  0.02511141  0.48438295  0.76687371     0.36500
C432        C  0.50178644  0.99976260  0.78331394    -0.05700
C433        C  0.47776418  0.01421543  0.76704837    -0.32700
C434        C  0.47719741  0.01408447  0.73485812     0.36400
H435        H  0.04196248  0.47161148  0.72225916     0.16700
O436        O  0.04880375  0.46972205  0.78187381    -0.60200
H437        H  0.45959365  0.02602302  0.77930472     0.16800
O438        O  0.45335774  0.02821613  0.71957726    -0.60300
H439        H  0.45960614  0.04994862  0.71735129     0.43700
H440        H  0.04114262  0.44880785  0.78633778     0.43700
C441        C  0.50188241  0.34270822  0.87253265    -0.05400
C442        C  0.47447756  0.35913012  0.86730474    -0.32800
C443        C  0.47385189  0.39126891  0.86804353     0.36500
C444        C  0.00101330  0.40775898  0.87410241    -0.05700
C445        C  0.02841635  0.39131358  0.87923554    -0.32700
C446        C  0.02905107  0.35920187  0.87843439     0.36400
H447        H  0.45335307  0.34704477  0.86247996     0.16700
O448        O  0.44666441  0.40625044  0.86206997    -0.60200
H449        H  0.04955717  0.40334818  0.88410994     0.16800
O450        O  0.05622479  0.34422175  0.88446404    -0.60300
H451        H  0.06724179  0.34378128  0.86457407     0.43700
H452        H  0.43581712  0.40695639  0.88204971     0.45300
C453        C  0.00270735  0.09274653  0.87641709    -0.05400
C454        C  0.47540179  0.10854720  0.86918958    -0.32800
C455        C  0.47444479  0.14062356  0.86809356     0.36500
C456        C  0.50107401  0.15767882  0.87459861    -0.05700
C457        C  0.02834542  0.14187867  0.88216730    -0.32700
C458        C  0.02927905  0.10975272  0.88328670     0.36400
H459        H  0.45466659  0.09601590  0.86384022     0.16700
O460        O  0.44732086  0.15494241  0.86044828    -0.60200
H461        H  0.04906850  0.15442409  0.88752641     0.16800
O462        O  0.05625535  0.09533528  0.89129529    -0.60300
H463        H  0.05536938  0.09293692  0.91394031     0.43700
H464        H  0.44751945  0.15658712  0.83772057     0.43700
C465        C  0.24739267  0.24969633  0.21954713    -0.05400
C466        C  0.26866638  0.23075942  0.23502189    -0.32800
C467        C  0.26860893  0.22871222  0.26716572     0.36500
C468        C  0.24784963  0.24665640  0.28425399    -0.05700
C469        C  0.22667953  0.26566220  0.26881404    -0.32700
C470        C  0.22604898  0.26694993  0.23668600     0.36400
H471        H  0.28513931  0.21724224  0.22213065     0.16700
O472        O  0.28986578  0.21030610  0.28169455    -0.60200
H473        H  0.21047790  0.27947322  0.28174717     0.16800
O474        O  0.20487416  0.28557881  0.22231234    -0.60300
H475        H  0.21538957  0.30546582  0.21932306     0.43700
H476        H  0.28054230  0.18961723  0.28219729     0.43700
C477        C  0.25157798  0.25003485  0.96942119    -0.05400
C478        C  0.22334642  0.25117211  0.98488540    -0.32800
C479        C  0.22207752  0.25207183  0.01698666     0.36500
C480        C  0.24941268  0.25156345  0.03452616    -0.05700
C481        C  0.27766766  0.25023558  0.01908939    -0.32700
C482        C  0.27892875  0.24936783  0.98693580     0.36400
H483        H  0.20196752  0.25164006  0.97207079     0.16700
O484        O  0.19388369  0.25328371  0.03084158    -0.60200
H485        H  0.29901496  0.24976661  0.03195608     0.16800
O486        O  0.30708452  0.24824572  0.97300407    -0.60300
H487        H  0.31238070  0.22608682  0.97175468     0.43700
H488        H  0.18867670  0.27546054  0.03212335     0.43700
C489        C  0.24725344  0.00221722  0.21666360    -0.05400
C490        C  0.26544295  0.02317704  0.23285924    -0.32800
C491        C  0.26540267  0.02359452  0.26501689     0.36500
C492        C  0.24807099  0.50195731  0.28149323    -0.05700
C493        C  0.23033077  0.48057146  0.26526696    -0.32700
C494        C  0.22959466  0.48081873  0.23309809     0.36400
H495        H  0.27942201  0.03953691  0.22051735     0.16700
O496        O  0.28354932  0.04429501  0.28021766    -0.60200
H497        H  0.21671355  0.46388767  0.27757465     0.16800
O498        O  0.21182653  0.45983887  0.21783245    -0.60300
H499        H  0.22585387  0.44250121  0.21301843     0.43700
H500        H  0.27131135  0.06355559  0.28086870     0.43700
C501        C  0.25138217  0.00231489  0.03171784    -0.05400
C502        C  0.22233193  0.50406867  0.01555493    -0.32800
C503        C  0.22174079  0.50445395  0.98339137     0.36500
C504        C  0.25112911  0.00295013  0.96648077    -0.05700
C505        C  0.27887772  0.00104171  0.98300972    -0.32700
C506        C  0.27919225  0.00057241  0.01522253     0.36400
H507        H  0.20073281  0.50533740  0.02773931     0.16700
O508        O  0.19387515  0.50613056  0.96867299    -0.60200
H509        H  0.30054655  0.99966565  0.97096025     0.16800
O510        O  0.30690205  0.99860973  0.03021305    -0.60300
H511        H  0.31137216  0.97629438  0.03194324     0.43700
H512        H  0.18918814  0.52840357  0.96693533     0.43700
C513        C  0.24991526  0.40968287  0.12559691    -0.05400
C514        C  0.22188793  0.39403582  0.12736033    -0.32800
C515        C  0.22097496  0.36195977  0.12819660     0.36500
C516        C  0.24846297  0.34465461  0.12704522    -0.05700
C517        C  0.27651940  0.36028974  0.12534098    -0.32700
C518        C  0.27742205  0.39241579  0.12450790     0.36400
H519        H  0.20040692  0.40668385  0.12827824     0.16700
O520        O  0.19297457  0.34789670  0.12995747    -0.60200
H521        H  0.29797206  0.34759728  0.12441324     0.16800
O522        O  0.30537860  0.40656181  0.12275136    -0.60300
H523        H  0.30973566  0.40823088  0.10044450     0.43700
H524        H  0.18865311  0.34617066  0.15226614     0.43700
C525        C  0.24777996  0.09470470  0.12501118    -0.05400
C526        C  0.27513145  0.11048468  0.13108388    -0.32800
C527        C  0.27563846  0.14254864  0.13216023     0.36500
C528        C  0.24848465  0.15963022  0.12679454    -0.05700
C529        C  0.22107724  0.14387503  0.12089025    -0.32700
C530        C  0.22057272  0.11177164  0.11981864     0.36400
H531        H  0.29629617  0.09794034  0.13534957     0.16700
O532        O  0.30287464  0.15683716  0.13857081    -0.60200
H533        H  0.19992955  0.15646286  0.11666682     0.16800
O534        O  0.19333284  0.09744022  0.11354085    -0.60300
H535        H  0.19258872  0.09553842  0.09085818     0.43700
H536        H  0.30329823  0.15916099  0.16123528     0.43700
C537        C  0.99883061  0.24635428  0.28018762    -0.05400
C538        C  0.02296521  0.23218676  0.26427798    -0.32800
C539        C  0.02411170  0.23340258  0.23211487     0.36500
C540        C  0.00026420  0.24801379  0.21547264    -0.05700
C541        C  0.47578444  0.26156384  0.23154415    -0.32700
C542        C  0.47523712  0.26125819  0.26368720     0.36400
H543        H  0.04126567  0.22069649  0.27685848     0.16700
O544        O  0.04800525  0.21929184  0.21717448    -0.60200
H545        H  0.45721131  0.27281612  0.21916083     0.16800
O546        O  0.45098157  0.27455715  0.27877764    -0.60300
H547        H  0.45639449  0.29654279  0.28079691     0.43700
H548        H  0.06493991  0.23439164  0.21755617     0.43700
C549        C  0.00077939  0.25103340  0.96525642    -0.05400
C550        C  0.47260007  0.25114574  0.98087600    -0.32800
C551        C  0.47151512  0.25096029  0.01303978     0.36500
C552        C  0.99898642  0.25082128  0.03037149    -0.05700
C553        C  0.02712925  0.25078129  0.01473709    -0.32700
C554        C  0.02821800  0.25097351  0.98261939     0.36400
H555        H  0.45116879  0.25131533  0.96814583     0.16700
O556        O  0.44342529  0.25131123  0.02714264    -0.60200
H557        H  0.04858552  0.25057399  0.02742310     0.16800
O558        O  0.05633269  0.25056898  0.96857547    -0.60300
H559        H  0.06245299  0.27242552  0.96715690     0.43700
H560        H  0.43724427  0.22946155  0.02837536     0.43700
C561        C  0.49920302  0.49920078  0.21866646    -0.05400
C562        C  0.01505110  0.47602214  0.23468642    -0.32800
C563        C  0.01490381  0.47529405  0.26686478     0.36500
C564        C  0.49943553  0.49850211  0.28339407    -0.05700
C565        C  0.48413160  0.02191934  0.26707685    -0.32700
C566        C  0.48357116  0.02206539  0.23494049     0.36400
H567        H  0.02720457  0.45821282  0.22219621     0.16700
O568        O  0.03018888  0.45200230  0.28187427    -0.60200
H569        H  0.47210637  0.03995468  0.27935787     0.16800
O570        O  0.46849153  0.04534438  0.21970735    -0.60300
H571        H  0.44680811  0.03870919  0.21842090     0.43700
H572        H  0.05122626  0.45979780  0.28535696     0.43700
C573        C  0.50005200  0.50044802  0.03384485    -0.05400
C574        C  0.02833693  0.00215492  0.01817131    -0.32800
C575        C  0.02949462  0.00185807  0.98600943     0.36500
C576        C  0.50207401  0.49993078  0.96870499    -0.05700
C577        C  0.47393467  0.49838413  0.98426077    -0.32700
C578        C  0.47272715  0.49877432  0.01639373     0.36400
H579        H  0.04968857  0.00363452  0.03092755     0.16700
O580        O  0.05752314  0.00391772  0.97196149    -0.60200
H581        H  0.45258733  0.49692033  0.97149790     0.16800
O582        O  0.44464065  0.49709619  0.03037216    -0.60300
H583        H  0.43724230  0.51864671  0.03174497     0.43700
H584        H  0.06551935  0.98254541  0.97117628     0.43700
C585        C  0.49894227  0.34245812  0.12378293    -0.05400
C586        C  0.47242246  0.35851369  0.13285910    -0.32800
C587        C  0.47198107  0.39065656  0.13402596     0.36500
C588        C  0.99829597  0.40742127  0.12568529    -0.05700
C589        C  0.02472807  0.39132739  0.11649960    -0.32700
C590        C  0.02516777  0.35925178  0.11533146     0.36400
H591        H  0.45203884  0.34611791  0.13955336     0.16700
O592        O  0.44575733  0.40533107  0.14358989    -0.60200
H593        H  0.04514756  0.40364551  0.10977249     0.16800
O594        O  0.05135849  0.34463998  0.10559355    -0.60300
H595        H  0.04874248  0.34228374  0.08304587     0.43700
H596        H  0.44816620  0.40755963  0.16617159     0.43700
C597        C  0.00037219  0.09241677  0.12665080    -0.05400
C598        C  0.02796589  0.10818654  0.12199789    -0.32800
C599        C  0.02848575  0.14032114  0.12076098     0.36500
C600        C  0.50100741  0.15739905  0.12405174    -0.05700
C601        C  0.47351541  0.14160171  0.12907176    -0.32700
C602        C  0.47300778  0.10953081  0.13041210     0.36400
H603        H  0.04927197  0.09559007  0.11897454     0.16700
O604        O  0.05593473  0.15464385  0.11564961    -0.60200
H605        H  0.45217983  0.15412572  0.13217625     0.16800
O606        O  0.44566734  0.09527377  0.13622811    -0.60300
H607        H  0.43508399  0.09412695  0.11605237     0.43700
H608        H  0.06555633  0.15660910  0.13614306     0.43700
O609        O  0.02454719  0.50120999  0.08314141    -0.71700
O610        O  0.02452443  0.99730873  0.17021478    -0.71900
O611        O  0.02396718  0.95583012  0.12483025    -0.71700
O612        O  0.02483607  0.54307554  0.12840307    -0.71800
O613        O  0.47514657  0.54381549  0.12521254    -0.71700
O614        O  0.47426106  0.95687602  0.12750878    -0.71700
O615        O  0.47451806  0.50169071  0.16994190    -0.71700
O616        O  0.47504514  0.99932308  0.08267886    -0.71900
V617        V  0.02367144  0.99939653  0.12661672     1.35200
V618        V  0.47583405  0.00037935  0.12630512     1.35200
C619        C  0.49993423  0.00037575  0.06788529     0.77600
C620        C  0.49960950  0.99937186  0.18483439     0.77600
C621        C  0.99888126  0.94143689  0.12611805     0.77500
C622        C  0.00005253  0.55838550  0.12685220     0.77500
O623        O  0.47503435  0.74969069  0.16666742    -0.71700
O624        O  0.47419858  0.75028159  0.07944221    -0.71900
O625        O  0.47521152  0.70630177  0.12298035    -0.71700
O626        O  0.47425275  0.79361517  0.12340034    -0.71800
O627        O  0.02404055  0.79349223  0.12349109    -0.71700
O628        O  0.02495749  0.70652281  0.12220911    -0.71700
O629        O  0.02394513  0.75079118  0.07925207    -0.71700
O630        O  0.02485835  0.74901359  0.16647344    -0.71900
V631        V  0.47561894  0.74995934  0.12308406     1.35200
V632        V  0.02346666  0.74999755  0.12284735     1.35200
C633        C  0.00006032  0.74891415  0.18144415     0.77600
C634        C  0.99892604  0.75072728  0.06438634     0.77600
C635        C  0.50031756  0.69147126  0.12277649     0.77500
C636        C  0.49910164  0.80846584  0.12353331     0.77500
O637        O  0.22490721  0.95853860  0.12318611    -0.71700
O638        O  0.22295267  0.54549968  0.12470809    -0.71900
O639        O  0.22539977  0.00278589  0.08010671    -0.71700
O640        O  0.22308489  0.50096844  0.16769314    -0.71800
O641        O  0.27299719  0.00357408  0.16874846    -0.71700
O642        O  0.27437351  0.50163878  0.08153142    -0.71700
O643        O  0.27272798  0.54607412  0.12421562    -0.71700
O644        O  0.27459753  0.95882237  0.12626042    -0.71900
V645        V  0.22521807  0.00201757  0.12379045     1.35200
V646        V  0.27263204  0.50253563  0.12511963     1.35200
C647        C  0.24991717  0.94374415  0.12497983     0.77600
C648        C  0.24755031  0.56070752  0.12447782     0.77600
C649        C  0.24977430  0.50213971  0.06600836     0.77500
C650        C  0.24776017  0.50225580  0.18300290     0.77500
O651        O  0.22253410  0.75309323  0.17056293    -0.71700
O652        O  0.22346702  0.75163065  0.08328234    -0.71900
O653        O  0.22290921  0.70875079  0.12756370    -0.71700
O654        O  0.22310215  0.79591661  0.12617213    -0.71800
O655        O  0.27281362  0.79544492  0.12882731    -0.71700
O656        O  0.27267517  0.70842330  0.12638216    -0.71700
O657        O  0.27319142  0.75311115  0.08399481    -0.71700
O658        O  0.27233531  0.75027879  0.17119857    -0.71900
V659        V  0.22394513  0.75235330  0.12691632     1.35200
V660        V  0.27179178  0.75188370  0.12759826     1.35200
C661        C  0.24730425  0.75132030  0.18573340     0.77600
C662        C  0.24847446  0.75225214  0.06866663     0.77600
C663        C  0.24782435  0.69367048  0.12689650     0.77500
C664        C  0.24797683  0.81062568  0.12752931     0.77500
O665        O  0.02699010  0.49913231  0.83240044    -0.71700
O666        O  0.02711470  0.00025222  0.91956780    -0.71900
O667        O  0.02633646  0.95617341  0.87637606    -0.71700
O668        O  0.02755723  0.54343067  0.87564069    -0.71800
O669        O  0.47778804  0.54420703  0.87714653    -0.71700
O670        O  0.47659907  0.95725783  0.87435205    -0.71700
O671        O  0.47736916  0.49940226  0.91947724    -0.71700
O672        O  0.47714212  0.00218829  0.83212700    -0.71900
V673        V  0.02603351  0.99977766  0.87592908     1.35200
V674        V  0.47818982  0.00075622  0.87576795     1.35200
C675        C  0.50198560  0.00044499  0.81730116     0.77600
C676        C  0.50227578  0.99983349  0.93446888     0.77600
C677        C  0.00123978  0.94179790  0.87497074     0.77500
C678        C  0.00279212  0.55874487  0.87655721     0.77500
O679        O  0.47612583  0.74997981  0.91589284    -0.71700
O680        O  0.47640587  0.75133342  0.82863758    -0.71900
O681        O  0.47614272  0.70692306  0.87180148    -0.71700
O682        O  0.47657590  0.79414781  0.87280785    -0.71800
O683        O  0.02632775  0.79334797  0.87099250    -0.71700
O684        O  0.02586948  0.70636150  0.87463853    -0.71700
O685        O  0.02620894  0.74782119  0.82906695    -0.71700
O686        O  0.02585849  0.75157339  0.91627159    -0.71900
V687        V  0.47725047  0.75054419  0.87227218     1.35200
V688        V  0.02511050  0.74983271  0.87269291     1.35200
C689        C  0.00095159  0.75095715  0.93104998     0.77600
C690        C  0.00134417  0.74935349  0.81404022     0.77600
C691        C  0.50094218  0.69170157  0.87358494     0.77500
C692        C  0.50159607  0.80866518  0.87196447     0.77500
O693        O  0.22663181  0.95818565  0.87444419    -0.71700
O694        O  0.22572906  0.54528011  0.87228393    -0.71900
O695        O  0.22757092  0.00087267  0.82976211    -0.71700
O696        O  0.22489832  0.50274948  0.91714337    -0.71800
O697        O  0.27662847  0.00209323  0.91774500    -0.71700
O698        O  0.27545502  0.49925634  0.83057437    -0.71700
O699        O  0.27554973  0.54440001  0.87307117    -0.71700
O700        O  0.27640074  0.95714537  0.87557478    -0.71900
V701        V  0.22821965  0.00171787  0.87334366     1.35200
V702        V  0.27407689  0.50075273  0.87423188     1.35200
C703        C  0.25129796  0.94274864  0.87551702     0.77600
C704        C  0.25077114  0.55973727  0.87231165     0.77600
C705        C  0.25064501  0.49949150  0.81537548     0.77500
C706        C  0.24961512  0.50255981  0.93250089     0.77500
O707        O  0.22672215  0.74894691  0.92024533    -0.71700
O708        O  0.22619710  0.75433442  0.83320407    -0.71900
O709        O  0.22633686  0.70783939  0.87405028    -0.71700
O710        O  0.22682648  0.79503861  0.87919962    -0.71800
O711        O  0.27645052  0.79429244  0.87561918    -0.71700
O712        O  0.27602294  0.70727797  0.87786719    -0.71700
O713        O  0.27591937  0.74963774  0.83309885    -0.71700
O714        O  0.27638471  0.75181213  0.92041461    -0.71900
V715        V  0.22743641  0.75147675  0.87671178     1.35200
V716        V  0.27526379  0.75078428  0.87675040     1.35200
C717        C  0.25158041  0.75026606  0.93530682     0.77600
C718        C  0.25096147  0.75231534  0.81838267     0.77600
C719        C  0.25118413  0.69264120  0.87566855     0.77500
C720        C  0.25177660  0.80961603  0.87744776     0.77500
O721        O  0.99906042  0.52563217  0.41898242    -0.71700
O722        O  0.49794693  0.52409332  0.33168970    -0.71900
O723        O  0.45502783  0.52443709  0.37542673    -0.71700
O724        O  0.04209646  0.52541870  0.37489636    -0.71800
O725        O  0.04306034  0.97563006  0.37730723    -0.71700
O726        O  0.45587698  0.97461067  0.37489577    -0.71700
O727        O  0.00064450  0.97428233  0.33251456    -0.71700
O728        O  0.49858290  0.97579525  0.41965153    -0.71900
V729        V  0.49856756  0.52392881  0.37530358     1.35200
V730        V  0.49947895  0.97603041  0.37608840     1.35200
C731        C  0.49887502  0.00089587  0.43422976     0.77600
C732        C  0.49943692  0.99891891  0.31718700     0.77600
C733        C  0.44056193  0.49937500  0.37493180     0.77500
C734        C  0.05753538  0.50073874  0.37609053     0.77500
O735        O  0.49859714  0.72116581  0.41590989    -0.71700
O736        O  0.00031511  0.72131745  0.32858844    -0.71900
O737        O  0.04285191  0.72110037  0.37326307    -0.71700
O738        O  0.45568981  0.72151607  0.37134780    -0.71800
O739        O  0.45568941  0.77129715  0.37307800    -0.71700
O740        O  0.04268588  0.77088337  0.37145640    -0.71700
O741        O  0.49790652  0.77115204  0.32864441    -0.71700
O742        O  0.00005717  0.77102502  0.41588963    -0.71900
V743        V  0.99932385  0.72224703  0.37225281     1.35200
V744        V  0.99913154  0.77014951  0.37225187     1.35200
C745        C  0.99937099  0.74610559  0.43085787     0.77600
C746        C  0.99904188  0.74631472  0.31382736     0.77600
C747        C  0.05770819  0.74592165  0.37253901     0.77500
C748        C  0.44075588  0.74654755  0.37234577     0.77500
O749        O  0.20566256  0.97567598  0.37507294    -0.71700
O750        O  0.29267385  0.97597274  0.37201134    -0.71900
O751        O  0.25077203  0.97536948  0.41703935    -0.71700
O752        O  0.24728039  0.97638435  0.32981814    -0.71800
O753        O  0.24926848  0.52619885  0.33047550    -0.71700
O754        O  0.24842724  0.52513020  0.41767186    -0.71700
O755        O  0.29236985  0.52573347  0.37444132    -0.71700
O756        O  0.20515623  0.52548225  0.37352169    -0.71900
V757        V  0.24912164  0.97680923  0.37346699     1.35200
V758        V  0.24879112  0.52468587  0.37402769     1.35200
C759        C  0.19053947  0.50049635  0.37469151     0.77600
C760        C  0.30748589  0.50086717  0.37305390     0.77600
C761        C  0.24964041  0.00005126  0.43228142     0.77500
C762        C  0.24810648  0.00152302  0.31526026     0.77500
O763        O  0.20575698  0.72263549  0.37554025    -0.71700
O764        O  0.29271626  0.72196733  0.37813316    -0.71900
O765        O  0.24821673  0.72292734  0.42067149    -0.71700
O766        O  0.25047820  0.72200190  0.33315334    -0.71800
O767        O  0.24741167  0.77184830  0.33280798    -0.71700
O768        O  0.25080263  0.77264215  0.41982376    -0.71700
O769        O  0.29280968  0.77167524  0.37493315    -0.71700
O770        O  0.20564599  0.77241436  0.37748407    -0.71900
V771        V  0.24926305  0.72331342  0.37689109     1.35200
V772        V  0.24920267  0.77118733  0.37631376     1.35200
C773        C  0.19077061  0.74761035  0.37614322     0.77600
C774        C  0.30770529  0.74662450  0.37637639     0.77600
C775        C  0.24973770  0.74805140  0.43522546     0.77500
C776        C  0.24874210  0.74688024  0.31814660     0.77500
O777        O  0.50166176  0.97353504  0.66988689    -0.71700
O778        O  0.99925069  0.97397276  0.58253659    -0.71900
O779        O  0.04382732  0.97352390  0.62514288    -0.71700
O780        O  0.45673554  0.97392489  0.62707167    -0.71800
O781        O  0.45650152  0.52381608  0.62560245    -0.71700
O782        O  0.04361239  0.52337683  0.62726772    -0.71700
O783        O  0.50072443  0.52381239  0.58277995    -0.71700
O784        O  0.99906993  0.52350297  0.67000871    -0.71900
V785        V  0.00032552  0.97468409  0.62618002     1.35200
V786        V  0.00001626  0.52266107  0.62641344     1.35200
C787        C  0.00033307  0.49854250  0.68481377     0.77600
C788        C  0.99997711  0.49897815  0.56774633     0.77600
C789        C  0.05870248  0.99832135  0.62598443     0.77500
C790        C  0.44175152  0.99892477  0.62630839     0.77500
O791        O  0.00032452  0.72379587  0.57949914    -0.71700
O792        O  0.50162243  0.72453334  0.66681458    -0.71900
O793        O  0.45720694  0.72406172  0.62369594    -0.71700
O794        O  0.04454936  0.72459179  0.62295680    -0.71800
O795        O  0.04361534  0.77443300  0.62243567    -0.71700
O796        O  0.45668754  0.77387093  0.62282262    -0.71700
O797        O  0.00032840  0.77441822  0.66629539    -0.71700
O798        O  0.49967879  0.77358918  0.57892306    -0.71900
V799        V  0.50089633  0.72518328  0.62317391     1.35200
V800        V  0.50013547  0.77308299  0.62260911     1.35200
C801        C  0.49971547  0.74853424  0.56423651     0.77600
C802        C  0.50098337  0.74958769  0.68143968     0.77600
C803        C  0.44200992  0.74897216  0.62364158     0.77500
C804        C  0.05898846  0.74971316  0.62276947     0.77500
O805        O  0.20677217  0.97436522  0.62521909    -0.71700
O806        O  0.29379854  0.97388772  0.62245306    -0.71900
O807        O  0.25215020  0.97336317  0.66752973    -0.71700
O808        O  0.24873013  0.97496463  0.58023875    -0.71800
O809        O  0.25097725  0.52476416  0.58113929    -0.71700
O810        O  0.24888100  0.52334614  0.66831962    -0.71700
O811        O  0.29369058  0.52367973  0.62598218    -0.71700
O812        O  0.20654039  0.52427437  0.62366854    -0.71900
V813        V  0.25032807  0.97509211  0.62386934     1.35200
V814        V  0.25007244  0.52306521  0.62474371     1.35200
C815        C  0.19166954  0.49946588  0.62455242     0.77600
C816        C  0.30862530  0.49868148  0.62445488     0.77600
C817        C  0.25077348  0.99808665  0.68267663     0.77500
C818        C  0.24960532  0.00011513  0.56566214     0.77500
O819        O  0.24987372  0.72568843  0.58439731    -0.71700
O820        O  0.25161598  0.72814507  0.67152753    -0.71900
O821        O  0.20727042  0.72657254  0.62868535    -0.71700
O822        O  0.29423262  0.72721881  0.62734071    -0.71800
O823        O  0.29364307  0.77703394  0.62736597    -0.71700
O824        O  0.20634710  0.77630759  0.62549784    -0.71700
O825        O  0.24913106  0.77792015  0.67021870    -0.71700
O826        O  0.25075648  0.77546907  0.58284972    -0.71900
V827        V  0.25073676  0.72789872  0.62796296     1.35200
V828        V  0.24999582  0.77576025  0.62653802     1.35200
C829        C  0.25022128  0.75011840  0.56866391     0.77600
C830        C  0.25029623  0.75338017  0.68581359     0.77600
C831        C  0.19189222  0.75124512  0.62702526     0.77500
C832        C  0.30888258  0.75217277  0.62722151     0.77500
C833        C  0.40795448  0.74940808  0.62468129    -0.05400
C834        C  0.39209351  0.77735101  0.62032063    -0.32800
C835        C  0.36000056  0.77875335  0.62121871     0.36500
C836        C  0.34295329  0.75188855  0.62670964    -0.05700
C837        C  0.35882621  0.72399506  0.63125481    -0.32700
C838        C  0.39091377  0.72261313  0.63044916     0.36400
H839        H  0.40457815  0.79832694  0.61595668     0.16700
O840        O  0.34566906  0.80654777  0.61661425    -0.60200
H841        H  0.34634342  0.70302502  0.63564695     0.16800
O842        O  0.40525166  0.69488216  0.63537616    -0.60300
H843        H  0.40851373  0.69367674  0.65793680     0.43700
H844        H  0.34262788  0.80813651  0.59404586     0.43700
C845        C  0.15788370  0.75075631  0.62646015    -0.05400
C846        C  0.14150338  0.77652413  0.61566163    -0.32800
C847        C  0.10942025  0.77637399  0.61396956     0.36500
C848        C  0.09297921  0.75022444  0.62344001    -0.05700
C849        C  0.10934104  0.72448703  0.63431556    -0.32700
C850        C  0.14142183  0.72466905  0.63610241     0.36400
H851        H  0.15360804  0.79677417  0.60800702     0.16700
O852        O  0.09445537  0.80186013  0.60269526    -0.60200
H853        H  0.09720927  0.70426723  0.64201027     0.16800
O854        O  0.15635148  0.69927185  0.64762282    -0.60300
H855        H  0.15881770  0.70332099  0.66991894     0.43700
H856        H  0.09194857  0.79800402  0.58036888     0.43700
C857        C  0.34267290  0.49842148  0.62489000    -0.05400
C858        C  0.35849852  0.52521075  0.63307700    -0.32800
C859        C  0.39060989  0.52573665  0.63385643     0.36500
C860        C  0.40774525  0.99904494  0.62613946    -0.05700
C861        C  0.39196313  0.97218406  0.61816994    -0.32700
C862        C  0.35985474  0.97163893  0.61735655     0.36400
H863        H  0.34596334  0.54588208  0.63918779     0.16700
O864        O  0.40501101  0.55212287  0.64300545    -0.60200
H865        H  0.40454491  0.95149898  0.61219085     0.16800
O866        O  0.34552655  0.94506603  0.60865087    -0.60300
H867        H  0.34442815  0.93244880  0.62762379     0.43700
H868        H  0.40577120  0.56522804  0.62434835     0.43700
C869        C  0.09275237  0.99825200  0.62549326    -0.05400
C870        C  0.10849544  0.52577646  0.63101685    -0.32800
C871        C  0.14059058  0.52652382  0.63089652     0.36500
C872        C  0.15764208  0.49953574  0.62483828    -0.05700
C873        C  0.14192549  0.97199995  0.61935186    -0.32700
C874        C  0.10982201  0.97126900  0.61934558     0.36400
H875        H  0.09599186  0.54680610  0.63585445     0.16700
O876        O  0.15494426  0.55380180  0.63693374    -0.60200
H877        H  0.15445806  0.95097787  0.61454568     0.16800
O878        O  0.09549574  0.94399065  0.61322851    -0.60300
H879        H  0.09273385  0.94362052  0.59058050     0.43700
H880        H  0.15816487  0.55400156  0.65952761     0.43700
C881        C  0.25018525  0.74872516  0.46936733    -0.05400
C882        C  0.24393982  0.72184610  0.48604409    -0.32800
C883        C  0.24370984  0.72192400  0.51824756     0.36500
C884        C  0.25009394  0.74918487  0.53455227    -0.05700
C885        C  0.25642191  0.77602757  0.51787858    -0.32700
C886        C  0.25667005  0.77595951  0.48570910     0.36400
H887        H  0.23885173  0.70064940  0.47410984     0.16700
O888        O  0.23704003  0.69518021  0.53343981    -0.60200
H889        H  0.26150096  0.79723894  0.52979580     0.16800
O890        O  0.26330535  0.80275624  0.47058900    -0.60300
H891        H  0.28593573  0.80269395  0.46839687     0.43700
H892        H  0.21444147  0.69542396  0.53589794     0.43700
C893        C  0.24931746  0.00052801  0.53154665    -0.05400
C894        C  0.25117874  0.97264987  0.51541874    -0.32800
C895        C  0.25148535  0.97207610  0.48327051     0.36500
C896        C  0.24964708  0.99975997  0.46639939    -0.05700
C897        C  0.24781495  0.52767615  0.48261746    -0.32700
C898        C  0.24757772  0.52825807  0.51479366     0.36400
H899        H  0.25264354  0.95103997  0.52774210     0.16700
O900        O  0.25330076  0.94420685  0.46870768    -0.60200
H901        H  0.24635489  0.54927607  0.47027527     0.16800
O902        O  0.24560137  0.55610587  0.52938201    -0.60300
H903        H  0.22332131  0.56050488  0.53105181     0.43700
H904        H  0.27554758  0.93957800  0.46723479     0.43700
C905        C  0.99919061  0.74810187  0.53010510    -0.05400
C906        C  0.00622803  0.72073992  0.51444030    -0.32800
C907        C  0.00646418  0.71969424  0.48225276     0.36500
C908        C  0.99932262  0.74627774  0.46496259    -0.05700
C909        C  0.49209962  0.77352234  0.48060094    -0.32700
C910        C  0.49180272  0.77456740  0.51276142     0.36400
H911        H  0.01200441  0.70006481  0.52716740     0.16700
O912        O  0.01402995  0.69259161  0.46804076    -0.60200
H913        H  0.48631748  0.79419435  0.46786694     0.16800
O914        O  0.48409187  0.80166107  0.52690383    -0.60300
H915        H  0.46156142  0.80079079  0.52974225     0.43700
H916        H  0.03655113  0.69338221  0.46511662     0.43700
C917        C  0.40671757  0.74682247  0.37305482    -0.05400
C918        C  0.39086153  0.71904587  0.37629986    -0.32800
C919        C  0.35879389  0.71857075  0.37780056     0.36500
C920        C  0.34175670  0.74624108  0.37568775    -0.05700
C921        C  0.35763108  0.77400351  0.37243992    -0.32700
C922        C  0.38968395  0.77448326  0.37102331     0.36400
H923        H  0.40334279  0.69748951  0.37797817     0.16700
O924        O  0.34446899  0.69081642  0.38106419    -0.60200
H925        H  0.34517990  0.79557769  0.37078693     0.16800
O926        O  0.40400266  0.80224085  0.36777707    -0.60300
H927        H  0.40540164  0.80561831  0.34527836     0.43700
H928        H  0.34363912  0.68715189  0.40354596     0.43700
C929        C  0.15674065  0.74755564  0.37510394    -0.05400
C930        C  0.14106682  0.71962723  0.37809529    -0.32800
C931        C  0.10898879  0.71865498  0.37729848     0.36500
C932        C  0.09176388  0.74595550  0.37315560    -0.05700
C933        C  0.10745552  0.77385702  0.36992706    -0.32700
C934        C  0.13954194  0.77482136  0.37074476     0.36400
H935        H  0.15368822  0.69832531  0.38133743     0.16700
O936        O  0.09485003  0.69080208  0.38054289    -0.60200
H937        H  0.09484305  0.79515494  0.36663497     0.16800
O938        O  0.15372700  0.80261672  0.36724578    -0.60300
H939        H  0.15664067  0.80501448  0.34476474     0.43700
H940        H  0.09241707  0.68794791  0.40302794     0.43700
C941        C  0.00004517  0.49927222  0.53361915    -0.05400
C942        C  0.49654223  0.52728015  0.51780793    -0.32800
C943        C  0.49635579  0.52834703  0.48561561     0.36500
C944        C  0.49936145  0.00097297  0.46835551    -0.05700
C945        C  0.00308522  0.97302342  0.48417379    -0.32700
C946        C  0.00352989  0.97195893  0.51631439     0.36400
H947        H  0.49379909  0.54856297  0.53040671     0.16700
O948        O  0.49252511  0.55620487  0.47128253    -0.60200
H949        H  0.00583852  0.95171666  0.47161651     0.16800
O950        O  0.00811534  0.94416373  0.53056752    -0.60300
H951        H  0.98757664  0.93451151  0.53124799     0.43700
H952        H  0.51342139  0.56499558  0.47001558     0.43700
C953        C  0.34151441  0.50070727  0.37284462    -0.05400
C954        C  0.35742495  0.97354857  0.38012876    -0.32800
C955        C  0.38954667  0.97264088  0.38067834     0.36500
C956        C  0.40651961  0.49928796  0.37403886    -0.05700
C957        C  0.39052071  0.52638737  0.36626257    -0.32700
C958        C  0.35838734  0.52726832  0.36562805     0.36400
H959        H  0.34499578  0.95288926  0.38593499     0.16700
O960        O  0.40408239  0.94581014  0.38895811    -0.60200
H961        H  0.40294492  0.54704949  0.36045351     0.16800
O962        O  0.34380480  0.55396185  0.35695478    -0.60300
H963        H  0.34316399  0.56676352  0.37576571     0.43700
H964        H  0.40522949  0.93354653  0.36982047     0.43700
C965        C  0.15653754  0.50037910  0.37546751    -0.05400
C966        C  0.14009522  0.52681940  0.36657497    -0.32800
C967        C  0.10797688  0.52730432  0.36663076     0.36500
C968        C  0.09155613  0.50107785  0.37593083    -0.05700
C969        C  0.10793399  0.97468012  0.38499555    -0.32700
C970        C  0.14005366  0.97423812  0.38504548     0.36400
H971        H  0.15215686  0.54716826  0.35911752     0.16700
O972        O  0.09296805  0.55351215  0.35724918    -0.60200
H973        H  0.09588045  0.95432014  0.39243775     0.16800
O974        O  0.15508357  0.94815893  0.39476318    -0.60300
H975        H  0.15836354  0.95105835  0.41714375     0.43700
H976        H  0.08976613  0.55094695  0.33482250     0.43700
C977        C  0.25030958  0.75378223  0.71988280    -0.05400
C978        C  0.25987072  0.72732332  0.73600191    -0.32800
C979        C  0.26021512  0.72673733  0.76812819     0.36500
C980        C  0.25069218  0.75270541  0.78469464    -0.05700
C981        C  0.24059927  0.77899509  0.76891210    -0.32700
C982        C  0.24071844  0.77985600  0.73669617     0.36400
H983        H  0.26729216  0.70699520  0.72368544     0.16700
O984        O  0.26957848  0.70054689  0.78316539    -0.60200
H985        H  0.23298961  0.79902681  0.78161639     0.16800
O986        O  0.23057296  0.80592710  0.72197916    -0.60300
H987        H  0.24862171  0.81962329  0.72123292     0.43700
H988        H  0.25046686  0.68922117  0.78767969     0.43700
C989        C  0.25241258  0.99856496  0.78126208    -0.05400
C990        C  0.22840347  0.51539194  0.76505160    -0.32800
C991        C  0.22813260  0.51542254  0.73289432     0.36500
C992        C  0.25084197  0.99779207  0.71648206    -0.05700
C993        C  0.27283230  0.98030685  0.73254320    -0.32700
C994        C  0.27407781  0.98102758  0.76475008     0.36400
H995        H  0.21141571  0.52895162  0.77721500     0.16700
O996        O  0.20629293  0.53243196  0.71753208    -0.60200
H997        H  0.28947819  0.96660726  0.72006922     0.16800
O998        O  0.29578983  0.96366163  0.77987122    -0.60300
H999        H  0.31458063  0.97637523  0.77997661     0.43700
H1000       H  0.18946515  0.51787888  0.71300353     0.43700
C1001       C  0.25198168  0.84368624  0.87731871    -0.05400
C1002       C  0.22443468  0.86001935  0.88184428    -0.32800
C1003       C  0.22379077  0.89216293  0.88152901     0.36500
C1004       C  0.25103332  0.90872678  0.87647855    -0.05700
C1005       C  0.27858651  0.89240549  0.87214694    -0.32700
C1006       C  0.27922402  0.86029916  0.87233636     0.36400
H1007       H  0.20318789  0.84787134  0.88571591     0.16700
O1008       O  0.19633025  0.90702760  0.88609859    -0.60200
H1009       H  0.29982546  0.90454101  0.86817999     0.16800
O1010       O  0.30669764  0.84552448  0.86757293    -0.60300
H1011       H  0.30837548  0.84340395  0.84494955     0.43700
H1012       H  0.19484622  0.90981676  0.90865946     0.43700
C1013       C  0.25104335  0.59372626  0.87213579    -0.05400
C1014       C  0.27582125  0.60927791  0.88551836    -0.32800
C1015       C  0.27599077  0.64137800  0.88712874     0.36500
C1016       C  0.25130436  0.65863867  0.87475932    -0.05700
C1017       C  0.22665775  0.64308492  0.86108327    -0.32700
C1018       C  0.22646081  0.61095548  0.85956070     0.36400
H1019       H  0.29483030  0.59648072  0.89550466     0.16700
O1020       O  0.30017096  0.65555434  0.90141174    -0.60200
H1021       H  0.20762329  0.65587897  0.85114606     0.16800
O1022       O  0.20225166  0.59668846  0.84542460    -0.60300
H1023       H  0.20879754  0.59362075  0.82383554     0.43700
H1024       H  0.29372913  0.65814494  0.92309272     0.43700
C1025       C  0.00101983  0.74975806  0.71541640    -0.05400
C1026       C  0.01651384  0.72634221  0.73162000    -0.32800
C1027       C  0.01722000  0.72625645  0.76382356     0.36500
C1028       C  0.00135358  0.74914477  0.78023971    -0.05700
C1029       C  0.48524209  0.77208142  0.76414247    -0.32700
C1030       C  0.48548297  0.77287025  0.73196423     0.36400
H1031       H  0.02848888  0.70831142  0.71928503     0.16700
O1032       O  0.03236726  0.70302494  0.77906116    -0.60200
H1033       H  0.47287644  0.78977074  0.77659568     0.16800
O1034       O  0.46947397  0.79564866  0.71692990    -0.60300
H1035       H  0.48354907  0.81345558  0.71643979     0.43700
H1036       H  0.05397205  0.70987647  0.78063216     0.43700
C1037       C  0.00038260  0.49863778  0.71860436    -0.05400
C1038       C  0.02393975  0.98349137  0.73461476    -0.32800
C1039       C  0.02500792  0.98430212  0.76678505     0.36500
C1040       C  0.50190558  0.49984587  0.78341862    -0.05700
C1041       C  0.47788955  0.51433196  0.76717501    -0.32700
C1042       C  0.47729915  0.51421347  0.73498777     0.36400
H1043       H  0.04190426  0.97153533  0.72218833     0.16700
O1044       O  0.04869842  0.96965611  0.78180231    -0.60200
H1045       H  0.45973577  0.52614876  0.77944753     0.16800
O1046       O  0.45346195  0.52837515  0.71973089    -0.60300
H1047       H  0.45972912  0.55010284  0.71751240     0.43700
H1048       H  0.04103985  0.94874340  0.78627793     0.43700
C1049       C  0.50182913  0.84270572  0.87236658    -0.05400
C1050       C  0.47439079  0.85911031  0.86723864    -0.32800
C1051       C  0.47373409  0.89125036  0.86802923     0.36500
C1052       C  0.00090675  0.90775637  0.87402025    -0.05700
C1053       C  0.02833412  0.89132742  0.87907076    -0.32700
C1054       C  0.02899848  0.85922003  0.87823426     0.36400
H1055       H  0.45326318  0.84701128  0.86246358     0.16700
O1056       O  0.44651247  0.90621683  0.86217595    -0.60200
H1057       H  0.04947794  0.90337266  0.88390384     0.16800
O1058       O  0.05620033  0.84426316  0.88418845    -0.60300
H1059       H  0.06716151  0.84383154  0.86426693     0.43700
H1060       H  0.43574558  0.90689966  0.88220002     0.45300
C1061       C  0.00268216  0.59274745  0.87649912    -0.05400
C1062       C  0.47538810  0.60854195  0.86920074    -0.32800
C1063       C  0.47444065  0.64061942  0.86806255     0.36500
C1064       C  0.50106314  0.65767727  0.87460545    -0.05700
C1065       C  0.02831658  0.64187918  0.88225776    -0.32700
C1066       C  0.02924260  0.60975658  0.88340070     0.36400
H1067       H  0.45466382  0.59600454  0.86382217     0.16700
O1068       O  0.44733801  0.65493526  0.86033245    -0.60200
H1069       H  0.04903206  0.65442418  0.88764721     0.16800
O1070       O  0.05620655  0.59534304  0.89145620    -0.60300
H1071       H  0.05529119  0.59296472  0.91410189     0.43700
H1072       H  0.44759415  0.65655373  0.83760376     0.43700
C1073       C  0.24714378  0.75003024  0.21959722    -0.05400
C1074       C  0.26845093  0.73107275  0.23498391    -0.32800
C1075       C  0.26861424  0.72910839  0.26711959     0.36500
C1076       C  0.24800360  0.74710303  0.28432041    -0.05700
C1077       C  0.22692074  0.76631362  0.26898400    -0.32700
C1078       C  0.22609591  0.76755510  0.23683741     0.36400
H1079       H  0.28477789  0.71744408  0.22202399     0.16700
O1080       O  0.28993090  0.71068287  0.28153281    -0.60200
H1081       H  0.21088641  0.78023848  0.28200244     0.16800
O1082       O  0.20500924  0.78635167  0.22254892    -0.60300
H1083       H  0.21576111  0.80606304  0.21925949     0.43700
H1084       H  0.28060901  0.68999390  0.28205317     0.43700
C1085       C  0.25130538  0.75033302  0.96943492    -0.05400
C1086       C  0.22304484  0.75006942  0.98486364    -0.32800
C1087       C  0.22169580  0.75088598  0.01697061     0.36500
C1088       C  0.24898927  0.75174063  0.03454383    -0.05700
C1089       C  0.27728226  0.75184229  0.01913491    -0.32700
C1090       C  0.27862426  0.75106145  0.98698586     0.36400
H1091       H  0.20169827  0.74944324  0.97201749     0.16700
O1092       O  0.19347904  0.75053495  0.03080259    -0.60200
H1093       H  0.29860647  0.75247138  0.03201826     0.16800
O1094       O  0.30681229  0.75140504  0.97309447    -0.60300
H1095       H  0.31327121  0.72954714  0.97189657     0.43700
H1096       H  0.18698023  0.77238589  0.03192253     0.43700
C1097       C  0.24739871  0.50212573  0.21677432    -0.05400
C1098       C  0.26553268  0.52315040  0.23294185    -0.32800
C1099       C  0.26551108  0.52357429  0.26509956     0.36500
C1100       C  0.24788661  0.00203097  0.28139592    -0.05700
C1101       C  0.23005923  0.98072929  0.26514801    -0.32700
C1102       C  0.22934212  0.98098845  0.23297126     0.36400
H1103       H  0.27942247  0.53957267  0.22058136     0.16700
O1104       O  0.28358079  0.54435246  0.28028505    -0.60200
H1105       H  0.21637662  0.96409179  0.27744464     0.16800
O1106       O  0.21151417  0.96007486  0.21768558    -0.60300
H1107       H  0.22548059  0.94268037  0.21289840     0.43700
H1108       H  0.27127943  0.56357422  0.28090738     0.43700
C1109       C  0.25019002  0.50220446  0.03186903    -0.05400
C1110       C  0.22367237  0.00428287  0.01517353    -0.32800
C1111       C  0.22334765  0.00470240  0.98300809     0.36500
C1112       C  0.24939026  0.50277983  0.96666032    -0.05700
C1113       C  0.27727762  0.50092537  0.98296962    -0.32700
C1114       C  0.27786229  0.50048643  0.01516475     0.36400
H1115       H  0.20197573  0.00559701  0.02717955     0.16700
O1116       O  0.19559437  0.00648847  0.96808471    -0.60200
H1117       H  0.29885878  0.49959411  0.97075979     0.16800
O1118       O  0.30569769  0.49859124  0.02992988    -0.60300
H1119       H  0.31019082  0.47628443  0.03171114     0.43700
H1120       H  0.19103515  0.02878018  0.96626152     0.43700
C1121       C  0.24992124  0.90969586  0.12576542    -0.05400
C1122       C  0.22182297  0.89417246  0.12760817    -0.32800
C1123       C  0.22078100  0.86210041  0.12854334     0.36500
C1124       C  0.24819931  0.84469176  0.12734502    -0.05700
C1125       C  0.27632153  0.86020947  0.12569854    -0.32700
C1126       C  0.27735867  0.89231998  0.12482879     0.36400
H1127       H  0.20039626  0.90691503  0.12850747     0.16700
O1128       O  0.19273521  0.84814489  0.13044774    -0.60200
H1129       H  0.29772845  0.84743541  0.12482010     0.16800
O1130       O  0.30538132  0.90634620  0.12317057    -0.60300
H1131       H  0.30987506  0.90789625  0.10088252     0.43700
H1132       H  0.18856479  0.84635159  0.15278068     0.43700
C1133       C  0.24714465  0.59472316  0.12484332    -0.05400
C1134       C  0.27451746  0.61051206  0.13078149    -0.32800
C1135       C  0.27504950  0.64257306  0.13177530     0.36500
C1136       C  0.24788129  0.65966664  0.12652380    -0.05700
C1137       C  0.22046682  0.64390892  0.12061312    -0.32700
C1138       C  0.21995471  0.61179022  0.11956709     0.36400
H1139       H  0.29569194  0.59797530  0.13502065     0.16700
O1140       O  0.30233493  0.65684743  0.13799993    -0.60200
H1141       H  0.19932552  0.65650608  0.11638672     0.16800
O1142       O  0.19273771  0.59744441  0.11322251    -0.60300
H1143       H  0.19211375  0.59542176  0.09054704     0.43700
H1144       H  0.30295951  0.65908343  0.16066886     0.43700
C1145       C  0.99898252  0.74653073  0.28008608    -0.05400
C1146       C  0.02305787  0.73233839  0.26412170    -0.32800
C1147       C  0.02405675  0.73343186  0.23195723     0.36500
C1148       C  0.00013561  0.74797270  0.21536455    -0.05700
C1149       C  0.47569605  0.76147808  0.23148303    -0.32700
C1150       C  0.47527646  0.76124806  0.26363406     0.36400
H1151       H  0.04141280  0.72088839  0.27665910     0.16700
O1152       O  0.04787874  0.71925321  0.21696750    -0.60200
H1153       H  0.45705608  0.77266442  0.21914117     0.16800
O1154       O  0.45102960  0.77448627  0.27879264    -0.60300
H1155       H  0.45637776  0.79649220  0.28076868     0.43700
H1156       H  0.06483526  0.73433053  0.21725169     0.43700
C1157       C  0.00069074  0.75124333  0.96515939    -0.05400
C1158       C  0.47251433  0.75120614  0.98076786    -0.32800
C1159       C  0.47143890  0.75104179  0.01293332     0.36500
C1160       C  0.99890944  0.75106431  0.03027433    -0.05700
C1161       C  0.02704857  0.75121818  0.01464023    -0.32700
C1162       C  0.02813153  0.75139951  0.98252321     0.36400
H1163       H  0.45108294  0.75122088  0.96803924     0.16700
O1164       O  0.44335179  0.75121358  0.02704160    -0.60200
H1165       H  0.04850524  0.75116193  0.02732540     0.16800
O1166       O  0.05624865  0.75119573  0.96848157    -0.60300
H1167       H  0.06217658  0.77310244  0.96699099     0.43700
H1168       H  0.43735055  0.72931718  0.02835438     0.43700
C1169       C  0.49947220  0.99920163  0.21856801    -0.05400
C1170       C  0.01526232  0.97600847  0.23461637    -0.32800
C1171       C  0.01504556  0.97528497  0.26679343     0.36500
C1172       C  0.49955289  0.99850623  0.28328701    -0.05700
C1173       C  0.48393872  0.52189108  0.26721714    -0.32700
C1174       C  0.48330104  0.52203693  0.23507822     0.36400
H1175       H  0.02741525  0.95818099  0.22215130     0.16700
O1176       O  0.03027805  0.95198148  0.28183778    -0.60200
H1177       H  0.47192063  0.53991096  0.27952758     0.16800
O1178       O  0.46815585  0.54529680  0.21988153    -0.60300
H1179       H  0.44648268  0.53862290  0.21862789     0.43700
H1180       H  0.05131538  0.95975798  0.28536310     0.43700
C1181       C  0.50020418  0.00049533  0.03375582    -0.05400
C1182       C  0.02820690  0.50212630  0.01830164    -0.32800
C1183       C  0.02941049  0.50182963  0.98614294     0.36500
C1184       C  0.50213138  0.99997463  0.96860994    -0.05700
C1185       C  0.47401311  0.99846297  0.98420547    -0.32700
C1186       C  0.47285205  0.99885583  0.01634070     0.36400
H1187       H  0.04954009  0.50362679  0.03108632     0.16700
O1188       O  0.05745709  0.50390982  0.97213425    -0.60200
H1189       H  0.45264650  0.99702051  0.97147233     0.16800
O1190       O  0.44478219  0.99721103  0.03035686    -0.60300
H1191       H  0.43741262  0.01877093  0.03174246     0.43700
H1192       H  0.06546641  0.48254229  0.97135283     0.43700
C1193       C  0.49905444  0.84247263  0.12389373    -0.05400
C1194       C  0.47256019  0.85857156  0.13296043    -0.32800
C1195       C  0.47216879  0.89071171  0.13410294     0.36500
C1196       C  0.99849379  0.90742943  0.12571635    -0.05700
C1197       C  0.02492413  0.89129124  0.11660784    -0.32700
C1198       C  0.02532262  0.85921596  0.11548952     0.36400
H1199       H  0.45215343  0.84621215  0.13965189     0.16700
O1200       O  0.44597463  0.90543176  0.14367862    -0.60200
H1201       H  0.04537135  0.90357249  0.10989704     0.16800
O1202       O  0.05152247  0.84455484  0.10584759    -0.60300
H1203       H  0.04898354  0.84219917  0.08329132     0.43700
H1204       H  0.44843361  0.90772719  0.16624830     0.43700
C1205       C  0.00009436  0.59243693  0.12650339    -0.05400
C1206       C  0.02768918  0.60819296  0.12180915    -0.32800
C1207       C  0.02821393  0.64032530  0.12048500     0.36500
C1208       C  0.50074675  0.65742093  0.12374514    -0.05700
C1209       C  0.47324028  0.64163985  0.12873588    -0.32700
C1210       C  0.47272217  0.60956869  0.13013860     0.36400
H1211       H  0.04899563  0.59558619  0.11882944     0.16700
O1212       O  0.05566342  0.65462777  0.11531654    -0.60200
H1213       H  0.45190458  0.65417779  0.13178504     0.16800
O1214       O  0.44536033  0.59533135  0.13589914    -0.60300
H1215       H  0.43485895  0.59410780  0.11568582     0.43700
H1216       H  0.06533232  0.65658214  0.13578876     0.43700
O1217       O  0.52475742  0.00121009  0.08303977    -0.71700
O1218       O  0.52425462  0.49734019  0.17031969    -0.71900
O1219       O  0.52373991  0.45583953  0.12494069    -0.71700
O1220       O  0.52510267  0.04304572  0.12834942    -0.71800
O1221       O  0.97540774  0.04381860  0.12518141    -0.71700
O1222       O  0.97403659  0.45686737  0.12758997    -0.71700
O1223       O  0.97478776  0.00167249  0.16985893    -0.71700
O1224       O  0.97483623  0.49929212  0.08274048    -0.71900
V1225       V  0.52342735  0.49940970  0.12672100     1.35200
V1226       V  0.97559207  0.50037782  0.12637055     1.35200
C1227       C  0.99973910  0.50035272  0.06796788     0.77600
C1228       C  0.99934016  0.49940714  0.18492163     0.77600
C1229       C  0.49865909  0.44143126  0.12618316     0.77500
C1230       C  0.50032390  0.05836676  0.12686872     0.77500
O1231       O  0.97517720  0.24970297  0.16678104    -0.71700
O1232       O  0.97427643  0.25010397  0.07955639    -0.71900
O1233       O  0.97540212  0.20623403  0.12320061    -0.71700
O1234       O  0.97426396  0.29353881  0.12341707    -0.71800
O1235       O  0.52406086  0.29352048  0.12348019    -0.71700
O1236       O  0.52516353  0.20653265  0.12240488    -0.71700
O1237       O  0.52403419  0.25070150  0.07934649    -0.71700
O1238       O  0.52501572  0.24911308  0.16658142    -0.71900
V1239       V  0.97572632  0.24988532  0.12320155     1.35200
V1240       V  0.52358659  0.25001129  0.12294360     1.35200
C1241       C  0.50021986  0.24897611  0.18155642     0.77600
C1242       C  0.49901033  0.25054662  0.06449078     0.77600
C1243       C  0.00053160  0.19144720  0.12301834     0.77500
C1244       C  0.99907713  0.30844675  0.12349728     0.77500
O1245       O  0.72462700  0.45844926  0.12345859    -0.71700
O1246       O  0.72355431  0.04553335  0.12445646    -0.71900
O1247       O  0.72460483  0.50268633  0.08041726    -0.71700
O1248       O  0.72325934  0.00101634  0.16740525    -0.71800
O1249       O  0.77285903  0.50364105  0.16869106    -0.71700
O1250       O  0.77519133  0.00156577  0.08159129    -0.71700
O1251       O  0.77333353  0.04601259  0.12430148    -0.71700
O1252       O  0.77433455  0.45890667  0.12615523    -0.71900
V1253       V  0.72477025  0.50194392  0.12407030     1.35200
V1254       V  0.77311065  0.00245887  0.12517154     1.35200
C1255       C  0.74970951  0.44373892  0.12498430     0.77600
C1256       C  0.74817695  0.06069186  0.12446784     0.77600
C1257       C  0.75072082  0.00217176  0.06586958     0.77500
C1258       C  0.74783962  0.00226388  0.18288290     0.77500
O1259       O  0.72288158  0.25296236  0.17046041    -0.71700
O1260       O  0.72393485  0.25151004  0.08322869    -0.71900
O1261       O  0.72341320  0.20866236  0.12754228    -0.71700
O1262       O  0.72344518  0.29580715  0.12605675    -0.71800
O1263       O  0.77315632  0.29545305  0.12869287    -0.71700
O1264       O  0.77318499  0.20840611  0.12651947    -0.71700
O1265       O  0.77366095  0.25297555  0.08398116    -0.71700
O1266       O  0.77268983  0.25032842  0.17122329    -0.71900
V1267       V  0.72436761  0.25224974  0.12684441     1.35200
V1268       V  0.77221558  0.25186775  0.12759963     1.35200
C1269       C  0.74760910  0.25119553  0.18569026     0.77600
C1270       C  0.74895092  0.25211043  0.06863591     0.77600
C1271       C  0.74835433  0.19362234  0.12703167     0.77500
C1272       C  0.74828577  0.31057895  0.12733214     0.77500
O1273       O  0.52689732  0.99908347  0.83228481    -0.71700
O1274       O  0.52711767  0.50023618  0.91969887    -0.71900
O1275       O  0.52643169  0.45616255  0.87649458    -0.71700
O1276       O  0.52755192  0.04338146  0.87553245    -0.71800
O1277       O  0.97778717  0.04425372  0.87703582    -0.71700
O1278       O  0.97669663  0.45727320  0.87440305    -0.71700
O1279       O  0.97736481  0.99948673  0.91940144    -0.71700
O1280       O  0.97723344  0.50222205  0.83220508    -0.71900
V1281       V  0.52608377  0.49977162  0.87605751     1.35200
V1282       V  0.97824019  0.50076781  0.87583981     1.35200
C1283       C  0.00208875  0.50049933  0.81739909     0.77600
C1284       C  0.00226351  0.49984548  0.93456167     0.77600
C1285       C  0.50134570  0.44177184  0.87504643     0.77500
C1286       C  0.50279915  0.05871417  0.87646884     0.77500
O1287       O  0.97618914  0.24994263  0.91603120    -0.71700
O1288       O  0.97627695  0.25143662  0.82880419    -0.71900
O1289       O  0.97613268  0.20695553  0.87189084    -0.71700
O1290       O  0.97658651  0.29419291  0.87302352    -0.71800
O1291       O  0.52632019  0.29331197  0.87110974    -0.71700
O1292       O  0.52584872  0.20633583  0.87462380    -0.71700
O1293       O  0.52605781  0.24786111  0.82911265    -0.71700
O1294       O  0.52591494  0.25146448  0.91634107    -0.71900
V1295       V  0.97723560  0.25058247  0.87242478     1.35200
V1296       V  0.52508049  0.24980270  0.87274882     1.35200
C1297       C  0.50102628  0.25081826  0.93115614     0.77600
C1298       C  0.50115060  0.24940100  0.81414969     0.77600
C1299       C  0.00094026  0.19173297  0.87359771     0.77500
C1300       C  0.00161641  0.30869799  0.87214533     0.77500
O1301       O  0.72470369  0.45809724  0.87467017    -0.71700
O1302       O  0.72790447  0.04522591  0.87217343    -0.71900
O1303       O  0.72560161  0.50076188  0.82989254    -0.71700
O1304       O  0.72690546  0.00270914  0.91691004    -0.71800
O1305       O  0.77463188  0.50189609  0.91788983    -0.71700
O1306       O  0.77742156  0.99891877  0.83032612    -0.71700
O1307       O  0.77771964  0.04426234  0.87259484    -0.71700
O1308       O  0.77447134  0.45716613  0.87551670    -0.71900
V1309       V  0.72619717  0.50167820  0.87351549     1.35200
V1310       V  0.77610676  0.00064473  0.87402020     1.35200
C1311       C  0.74940313  0.44268994  0.87554308     0.77600
C1312       C  0.75296727  0.05963248  0.87195934     0.77600
C1313       C  0.75256922  0.99937166  0.81517724     0.77500
C1314       C  0.75158195  0.00264108  0.93230749     0.77500
O1315       O  0.72693200  0.24994368  0.92033313    -0.71700
O1316       O  0.72596890  0.25126935  0.83321824    -0.71900
O1317       O  0.72730046  0.20702713  0.87593108    -0.71700
O1318       O  0.72593993  0.29438792  0.87740707    -0.71800
O1319       O  0.77570493  0.29455804  0.87725495    -0.71700
O1320       O  0.77711664  0.20757136  0.87590377    -0.71700
O1321       O  0.77586958  0.25211783  0.83291986    -0.71700
O1322       O  0.77669199  0.25032266  0.92029945    -0.71900
V1323       V  0.72749552  0.25067462  0.87676568     1.35200
V1324       V  0.77537309  0.25110138  0.87660469     1.35200
C1325       C  0.75188620  0.24998735  0.93528519     0.77600
C1326       C  0.75072592  0.25200780  0.81831706     0.77600
C1327       C  0.75250617  0.19240947  0.87556377     0.77500
C1328       C  0.75070614  0.30942432  0.87730395     0.77500
O1329       O  0.49896318  0.02559713  0.41887462    -0.71700
O1330       O  0.99793393  0.02410770  0.33157434    -0.71900
O1331       O  0.95496004  0.02445516  0.37526886    -0.71700
O1332       O  0.54202346  0.02538676  0.37482570    -0.71800
O1333       O  0.54313905  0.47563661  0.37738082    -0.71700
O1334       O  0.95595181  0.47463562  0.37505704    -0.71700
O1335       O  0.50066040  0.47426835  0.33263690    -0.71700
O1336       O  0.99869962  0.47582990  0.41976662    -0.71900
V1337       V  0.99850223  0.02393396  0.37518712     1.35200
V1338       V  0.99955151  0.47606003  0.37620088     1.35200
C1339       C  0.99897390  0.50093310  0.43434117     0.77600
C1340       C  0.99941908  0.49894224  0.31729269     0.77600
C1341       C  0.94048753  0.99939704  0.37475511     0.77500
C1342       C  0.55746196  0.00070835  0.37604004     0.77500
O1343       O  0.99866233  0.22148468  0.41612148    -0.71700
O1344       O  0.50003172  0.22127137  0.32878234    -0.71900
O1345       O  0.54273550  0.22121132  0.37329760    -0.71700
O1346       O  0.95552178  0.22171117  0.37170739    -0.71800
O1347       O  0.95559152  0.27149739  0.37321625    -0.71700
O1348       O  0.54253504  0.27099060  0.37134544    -0.71700
O1349       O  0.99768846  0.27115104  0.32867913    -0.71700
O1350       O  0.50010855  0.27130391  0.41592041    -0.71900
V1351       V  0.49918464  0.22236673  0.37245649     1.35200
V1352       V  0.49901833  0.27026925  0.37228561     1.35200
C1353       C  0.49956820  0.24643627  0.43098250     0.77600
C1354       C  0.49880703  0.24622510  0.31394123     0.77600
C1355       C  0.55757128  0.24604769  0.37243865     0.77500
C1356       C  0.94062030  0.24677598  0.37260024     0.77500
O1357       O  0.70574796  0.47567914  0.37510982    -0.71700
O1358       O  0.79276178  0.47597147  0.37212536    -0.71900
O1359       O  0.75082972  0.47538206  0.41712510    -0.71700
O1360       O  0.74741459  0.47636489  0.32990722    -0.71800
O1361       O  0.74915073  0.02624931  0.33039835    -0.71700
O1362       O  0.74834967  0.02514123  0.41759151    -0.71700
O1363       O  0.79228162  0.02577232  0.37435050    -0.71700
O1364       O  0.70506623  0.02549915  0.37347685    -0.71900
V1365       V  0.74921040  0.47680869  0.37354973     1.35200
V1366       V  0.74869976  0.02471541  0.37395222     1.35200
C1367       C  0.69045714  0.00050953  0.37466874     0.77600
C1368       C  0.80740147  0.00090900  0.37293812     0.77600
C1369       C  0.74972039  0.50006824  0.43236191     0.77500
C1370       C  0.74824813  0.50149536  0.31533876     0.77500
O1371       O  0.70563596  0.22333867  0.37576450    -0.71700
O1372       O  0.79254005  0.22274125  0.37829024    -0.71900
O1373       O  0.74812409  0.22425612  0.42078640    -0.71700
O1374       O  0.75029697  0.22216574  0.33336395    -0.71800
O1375       O  0.74729187  0.27201059  0.33242404    -0.71700
O1376       O  0.75057782  0.27396818  0.41948727    -0.71700
O1377       O  0.79266595  0.27241401  0.37459714    -0.71700
O1378       O  0.70544632  0.27314026  0.37703285    -0.71900
V1379       V  0.74911893  0.22407139  0.37706633     1.35200
V1380       V  0.74903243  0.27193827  0.37593941     1.35200
C1381       C  0.69060965  0.24828923  0.37601364     0.77600
C1382       C  0.80754466  0.24736032  0.37629862     0.77600
C1383       C  0.74956315  0.24951043  0.43511497     0.77500
C1384       C  0.74857999  0.24685664  0.31806650     0.77500
O1385       O  0.00164677  0.47361652  0.66999520    -0.71700
O1386       O  0.49910461  0.47403976  0.58266390    -0.71900
O1387       O  0.54373832  0.47360748  0.62518958    -0.71700
O1388       O  0.95664860  0.47399199  0.62724369    -0.71800
O1389       O  0.95659496  0.02373492  0.62541921    -0.71700
O1390       O  0.54370788  0.02329860  0.62724731    -0.71700
O1391       O  0.00087999  0.02374434  0.58267115    -0.71700
O1392       O  0.49908747  0.02342156  0.66991052    -0.71900
V1393       V  0.50023857  0.47476562  0.62630352     1.35200
V1394       V  0.50010865  0.02258937  0.62631541     1.35200
C1395       C  0.50031899  0.99845647  0.68471044     0.77600
C1396       C  0.50011846  0.99891968  0.56763938     0.77600
C1397       C  0.55860946  0.49840891  0.62597701     0.77500
C1398       C  0.94166004  0.49899068  0.62649667     0.77500
O1399       O  0.50081946  0.22419196  0.57957660    -0.71700
O1400       O  0.00180180  0.22471606  0.66688850    -0.71900
O1401       O  0.95755073  0.22419023  0.62367679    -0.71700
O1402       O  0.54486876  0.22499444  0.62316429    -0.71800
O1403       O  0.54383067  0.27483490  0.62293724    -0.71700
O1404       O  0.95685082  0.27400717  0.62272007    -0.71700
O1405       O  0.50019462  0.27458335  0.66649324    -0.71700
O1406       O  0.00018815  0.27400152  0.57911615    -0.71900
V1407       V  0.00121329  0.22546186  0.62325152     1.35200
V1408       V  0.00033642  0.27336339  0.62280050     1.35200
C1409       C  0.00030571  0.24898721  0.56436545     0.77600
C1410       C  0.00091955  0.24973345  0.68156648     0.77600
C1411       C  0.94227152  0.24903888  0.62356032     0.77500
C1412       C  0.55925895  0.25013660  0.62319559     0.77500
O1413       O  0.70665050  0.47445632  0.62516396    -0.71700
O1414       O  0.79369004  0.47395367  0.62278882    -0.71900
O1415       O  0.75179536  0.47347596  0.66769574    -0.71700
O1416       O  0.74881124  0.47501681  0.58036777    -0.71800
O1417       O  0.75087189  0.02470412  0.58101442    -0.71700
O1418       O  0.74924948  0.02321670  0.66818435    -0.71700
O1419       O  0.79380090  0.02359539  0.62564261    -0.71700
O1420       O  0.70664500  0.02417316  0.62376050    -0.71900
V1421       V  0.75021003  0.47517229  0.62401510     1.35200
V1422       V  0.75018449  0.02297150  0.62461400     1.35200
C1423       C  0.69178219  0.99936038  0.62467616     0.77600
C1424       C  0.80873364  0.99859952  0.62408186     0.77600
C1425       C  0.75026813  0.49820499  0.68282665     0.77500
C1426       C  0.74974522  0.50015960  0.56577807     0.77500
O1427       O  0.75080287  0.22602193  0.58394893    -0.71700
O1428       O  0.75083235  0.22684488  0.67108169    -0.71900
O1429       O  0.70741632  0.22625748  0.62749460    -0.71700
O1430       O  0.79447001  0.22658753  0.62765078    -0.71800
O1431       O  0.79400086  0.27640479  0.62692410    -0.71700
O1432       O  0.70674500  0.27609394  0.62675337    -0.71700
O1433       O  0.75044823  0.27668224  0.67066526    -0.71700
O1434       O  0.75031167  0.27582816  0.58320432    -0.71900
V1435       V  0.75090486  0.22742425  0.62752634     1.35200
V1436       V  0.75039544  0.27531556  0.62693208     1.35200
C1437       C  0.75043344  0.25070556  0.56860554     0.77600
C1438       C  0.75034500  0.25183343  0.68580681     0.77600
C1439       C  0.69217088  0.25106039  0.62714290     0.77500
C1440       C  0.80917248  0.25151756  0.62708245     0.77500
C1441       C  0.90822927  0.24926618  0.62453700    -0.05400
C1442       C  0.89214651  0.27666068  0.61810206    -0.32800
C1443       C  0.86004981  0.27783277  0.61889867     0.36500
C1444       C  0.84323059  0.25130983  0.62643014    -0.05700
C1445       C  0.85931804  0.22395117  0.63300148    -0.32700
C1446       C  0.89143092  0.22281689  0.63231843     0.36400
H1447       H  0.90446624  0.29733832  0.61212759     0.16700
O1448       O  0.84546948  0.30504642  0.61208073    -0.60200
H1449       H  0.84698596  0.20329357  0.63901360     0.16800
O1450       O  0.90605337  0.19573744  0.63955352    -0.60300
H1451       H  0.90957836  0.19659761  0.66208657     0.43700
H1452       H  0.84222294  0.30468775  0.58949131     0.43700
C1453       C  0.65817018  0.25078296  0.62678795    -0.05400
C1454       C  0.64188028  0.27682528  0.61653472    -0.32800
C1455       C  0.60978739  0.27684813  0.61492018     0.36500
C1456       C  0.59325652  0.25061533  0.62398697    -0.05700
C1457       C  0.60954378  0.22464214  0.63443101    -0.32700
C1458       C  0.64163031  0.22463511  0.63609120     0.36400
H1459       H  0.65406921  0.29713266  0.60917272     0.16700
O1460       O  0.59490971  0.30255635  0.60405019    -0.60200
H1461       H  0.59735332  0.20434600  0.64182354     0.16800
O1462       O  0.65649587  0.19899259  0.64714508    -0.60300
H1463       H  0.65922715  0.20274441  0.66946548     0.43700
H1464       H  0.59254755  0.29913795  0.58163618     0.43700
C1465       C  0.84277662  0.99834450  0.62451838    -0.05400
C1466       C  0.85858971  0.02514904  0.63267832    -0.32800
C1467       C  0.89069709  0.02567130  0.63351919     0.36500
C1468       C  0.90765118  0.49910980  0.62637086    -0.05700
C1469       C  0.89185835  0.47226871  0.61835656    -0.32700
C1470       C  0.85974744  0.47172317  0.61758846     0.36400
H1471       H  0.84604778  0.04583319  0.63873279     0.16700
O1472       O  0.90508360  0.05206897  0.64265869    -0.60200
H1473       H  0.90443376  0.45160326  0.61229785     0.16800
O1474       O  0.84540936  0.44518388  0.60879630    -0.60300
H1475       H  0.84435049  0.43248527  0.62771708     0.43700
H1476       H  0.90587211  0.06515197  0.62398768     0.43700
C1477       C  0.59265381  0.49835086  0.62538459    -0.05400
C1478       C  0.60859759  0.02567794  0.63113947    -0.32800
C1479       C  0.64069620  0.02641515  0.63106707     0.36500
C1480       C  0.65775088  0.99942041  0.62503984    -0.05700
C1481       C  0.64181740  0.47211834  0.61911172    -0.32700
C1482       C  0.60971471  0.47138478  0.61914345     0.36400
H1483       H  0.59609205  0.04671727  0.63593064     0.16700
O1484       O  0.65504931  0.05369436  0.63709953    -0.60200
H1485       H  0.65434796  0.45110522  0.61426172     0.16800
O1486       O  0.59538062  0.44412129  0.61297839    -0.60300
H1487       H  0.59254797  0.44382786  0.59033695     0.43700
H1488       H  0.65827821  0.05389320  0.65969220     0.43700
C1489       C  0.74998491  0.25027852  0.46926184    -0.05400
C1490       C  0.74542834  0.22297058  0.48579309    -0.32800
C1491       C  0.74537437  0.22276787  0.51795508     0.36500
C1492       C  0.75017560  0.25022565  0.53446824    -0.05700
C1493       C  0.75476197  0.27757420  0.51797125    -0.32700
C1494       C  0.75487112  0.27776702  0.48575771     0.36400
H1495       H  0.74162707  0.20154700  0.47377489     0.16700
O1496       O  0.74054572  0.19547892  0.53290285    -0.60200
H1497       H  0.75856276  0.29896602  0.53005063     0.16800
O1498       O  0.75971864  0.30503385  0.47076639    -0.60300
H1499       H  0.78230673  0.30662825  0.46885234     0.43700
H1500       H  0.71797743  0.19402620  0.53510898     0.43700
C1501       C  0.74951690  0.50056444  0.53165058    -0.05400
C1502       C  0.75129697  0.47268031  0.51552047    -0.32800
C1503       C  0.75156554  0.47209996  0.48336654     0.36500
C1504       C  0.74977149  0.49978358  0.46648741    -0.05700
C1505       C  0.74759575  0.02765709  0.48252081    -0.32700
C1506       C  0.74731570  0.02822405  0.51469307     0.36400
H1507       H  0.75270630  0.45106919  0.52784693     0.16700
O1508       O  0.75328603  0.44422370  0.46880611    -0.60200
H1509       H  0.74609005  0.04925863  0.47018618     0.16800
O1510       O  0.74524506  0.05605919  0.52929428    -0.60300
H1511       H  0.72295046  0.06036999  0.53098806     0.43700
H1512       H  0.77551941  0.43954107  0.46729157     0.43700
C1513       C  0.49997215  0.24861402  0.53023656    -0.05400
C1514       C  0.50715685  0.22129266  0.51456988    -0.32800
C1515       C  0.50731696  0.22022556  0.48238443     0.36500
C1516       C  0.49985944  0.24672083  0.46508979    -0.05700
C1517       C  0.99265593  0.27400798  0.48072410    -0.32700
C1518       C  0.99252703  0.27509405  0.51289033     0.36400
H1519       H  0.51307799  0.20065661  0.52729623     0.16700
O1520       O  0.51512144  0.19318868  0.46817534    -0.60200
H1521       H  0.98674287  0.29464377  0.46798961     0.16800
O1522       O  0.98490980  0.30221040  0.52704024    -0.60300
H1523       H  0.96236904  0.30144430  0.52983011     0.43700
H1524       H  0.53760856  0.19425512  0.46509771     0.43700
C1525       C  0.90657495  0.24717254  0.37326153    -0.05400
C1526       C  0.89059994  0.21947061  0.37649333    -0.32800
C1527       C  0.85852452  0.21913350  0.37788921     0.36500
C1528       C  0.84159666  0.24687114  0.37567342    -0.05700
C1529       C  0.85758541  0.27455923  0.37242982    -0.32700
C1530       C  0.88964862  0.27490296  0.37113466     0.36400
H1531       H  0.90299203  0.19786797  0.37823364     0.16700
O1532       O  0.84408260  0.19143871  0.38114097    -0.60200
H1533       H  0.84521937  0.29617722  0.37070898     0.16800
O1534       O  0.90408488  0.30260303  0.36792559    -0.60300
H1535       H  0.90555674  0.30597371  0.34543066     0.43700
H1536       H  0.84313201  0.18782495  0.40362572     0.43700
C1537       C  0.65658035  0.24809947  0.37492733    -0.05400
C1538       C  0.64102491  0.22010157  0.37798844    -0.32800
C1539       C  0.60895434  0.21896997  0.37714556     0.36500
C1540       C  0.59161956  0.24618141  0.37294218    -0.05700
C1541       C  0.60719043  0.27414239  0.36959523    -0.32700
C1542       C  0.63926726  0.27526157  0.37041571     0.36400
H1543       H  0.65373365  0.19886285  0.38130470     0.16700
O1544       O  0.59493408  0.19105637  0.38039439    -0.60200
H1545       H  0.59448908  0.29537542  0.36622128     0.16800
O1546       O  0.65332632  0.30310433  0.36678643    -0.60300
H1547       H  0.65613858  0.30545547  0.34428763     0.43700
H1548       H  0.59255865  0.18816965  0.40288196     0.43700
C1549       C  0.50014441  0.99922123  0.53350912    -0.05400
C1550       C  0.99670293  0.02724904  0.51770051    -0.32800
C1551       C  0.99643964  0.02832653  0.48550795     0.36500
C1552       C  0.99941648  0.50101684  0.46846698    -0.05700
C1553       C  0.50320338  0.47306560  0.48431396    -0.32700
C1554       C  0.50357103  0.47201265  0.51645545     0.36400
H1555       H  0.99406524  0.04853734  0.53031152     0.16700
O1556       O  0.99268365  0.05620266  0.47119190    -0.60200
H1557       H  0.50606357  0.45176508  0.47176917     0.16800
O1558       O  0.50823359  0.44424034  0.53072999    -0.60300
H1559       H  0.48773089  0.43450984  0.53137315     0.43700
H1560       H  0.01361229  0.06491000  0.46987383     0.43700
C1561       C  0.84143240  0.00074991  0.37272073    -0.05400
C1562       C  0.85750621  0.47355161  0.38022458    -0.32800
C1563       C  0.88962632  0.47265226  0.38080376     0.36500
C1564       C  0.90644230  0.99931683  0.37386460    -0.05700
C1565       C  0.89044168  0.02642126  0.36610604    -0.32700
C1566       C  0.85830598  0.02730852  0.36549613     0.36400
H1567       H  0.84507749  0.45288654  0.38601117     0.16700
O1568       O  0.90416130  0.44582300  0.38908994    -0.60200
H1569       H  0.90286629  0.04708198  0.36029301     0.16800
O1570       O  0.84372079  0.05400445  0.35683505    -0.60300
H1571       H  0.84309867  0.06680638  0.37564603     0.43700
H1572       H  0.90532126  0.43356045  0.36995230     0.43700
C1573       C  0.65645890  0.00038541  0.37547939    -0.05400
C1574       C  0.64001131  0.02681909  0.36658320    -0.32800
C1575       C  0.60789541  0.02728923  0.36661915     0.36500
C1576       C  0.59148083  0.00105725  0.37591351    -0.05700
C1577       C  0.60801448  0.47468257  0.38499262    -0.32700
C1578       C  0.64013363  0.47423674  0.38502548     0.36400
H1579       H  0.65206694  0.04717049  0.35912274     0.16700
O1580       O  0.59288263  0.05348490  0.35721008    -0.60200
H1581       H  0.59596440  0.45432101  0.39243604     0.16800
O1582       O  0.65516331  0.44815224  0.39472857    -0.60300
H1583       H  0.65848374  0.45105917  0.41710267     0.43700
H1584       H  0.58971494  0.05091211  0.33477924     0.43700
C1585       C  0.74970533  0.25192592  0.71985809    -0.05400
C1586       C  0.75829191  0.27848690  0.73603658    -0.32800
C1587       C  0.75882363  0.27871813  0.76823479     0.36500
C1588       C  0.75020433  0.25238648  0.78464962    -0.05700
C1589       C  0.74080538  0.22616286  0.76875358    -0.32700
C1590       C  0.74059019  0.22569936  0.73660030     0.36400
H1591       H  0.76501367  0.29900031  0.72373171     0.16700
O1592       O  0.76685632  0.30504076  0.78348585    -0.60200
H1593       H  0.73389198  0.20586791  0.78134227     0.16800
O1594       O  0.73133730  0.19949742  0.72185980    -0.60300
H1595       H  0.70885566  0.20191319  0.71911574     0.43700
H1596       H  0.78938040  0.30351589  0.78641495     0.43700
C1597       C  0.75070415  0.49858277  0.78144629    -0.05400
C1598       C  0.72996773  0.01538152  0.76508719    -0.32800
C1599       C  0.72929263  0.01535704  0.73294625     0.36500
C1600       C  0.74994109  0.49791069  0.71664251    -0.05700
C1601       C  0.77175027  0.48043170  0.73294627    -0.32700
C1602       C  0.77259900  0.48110860  0.76516194     0.36400
H1603       H  0.71313661  0.02897946  0.77742406     0.16700
O1604       O  0.70729126  0.03237589  0.71782521    -0.60200
H1605       H  0.78857205  0.46677654  0.72066013     0.16800
O1606       O  0.79417951  0.46377732  0.78051371    -0.60300
H1607       H  0.81295291  0.47651457  0.78080952     0.43700
H1608       H  0.69039525  0.01783745  0.71351247     0.43700
C1609       C  0.75052335  0.34351694  0.87705244    -0.05400
C1610       C  0.72279339  0.35967402  0.88101304    -0.32800
C1611       C  0.72198322  0.39185040  0.88077535     0.36500
C1612       C  0.74923921  0.40861200  0.87635814    -0.05700
C1613       C  0.77694107  0.39242946  0.87247546    -0.32700
C1614       C  0.77774772  0.36032783  0.87257747     0.36400
H1615       H  0.70156561  0.34736109  0.88444542     0.16700
O1616       O  0.69434853  0.40655222  0.88477222    -0.60200
H1617       H  0.79819281  0.40467478  0.86893715     0.16800
O1618       O  0.80538125  0.34574535  0.86813280    -0.60300
H1619       H  0.80712416  0.34322803  0.84555534     0.43700
H1620       H  0.69226466  0.40910396  0.90731193     0.43700
C1621       C  0.75322245  0.09360146  0.87161473    -0.05400
C1622       C  0.77867954  0.10931072  0.88347127    -0.32800
C1623       C  0.77870264  0.14142095  0.88511467     0.36500
C1624       C  0.75313359  0.15845896  0.87438553    -0.05700
C1625       C  0.72788115  0.14275007  0.86212413    -0.32700
C1626       C  0.72785345  0.11067087  0.86048971     0.36400
H1627       H  0.79834288  0.09664535  0.89227538     0.16700
O1628       O  0.80357480  0.15581320  0.89789304    -0.60200
H1629       H  0.70816767  0.15539796  0.85340627     0.16800
O1630       O  0.70293507  0.09629897  0.84777937    -0.60300
H1631       H  0.70820799  0.09331796  0.82582644     0.43700
H1632       H  0.79851443  0.15820770  0.91996492     0.43700
C1633       C  0.50077681  0.24979994  0.71553858    -0.05400
C1634       C  0.51647284  0.22652435  0.73174000    -0.32800
C1635       C  0.51712689  0.22641227  0.76393717     0.36500
C1636       C  0.50106190  0.24915984  0.78035103    -0.05700
C1637       C  0.98470353  0.27196309  0.76424412    -0.32700
C1638       C  0.98492948  0.27273796  0.73206294     0.36400
H1639       H  0.52865859  0.20863288  0.71940821     0.16700
O1640       O  0.53242516  0.20327865  0.77917354    -0.60200
H1641       H  0.97214613  0.28952105  0.77669120     0.16800
O1642       O  0.96861425  0.29528729  0.71700681    -0.60300
H1643       H  0.98240718  0.31331584  0.71657965     0.43700
H1644       H  0.55399645  0.21024338  0.78069251     0.43700
C1645       C  0.50031740  0.99853852  0.71850121    -0.05400
C1646       C  0.52402394  0.48358587  0.73470422    -0.32800
C1647       C  0.52511706  0.48438213  0.76687532     0.36500
C1648       C  0.00178331  0.99977082  0.78330747    -0.05700
C1649       C  0.97775972  0.01421933  0.76704000    -0.32700
C1650       C  0.97719090  0.01408091  0.73484981     0.36400
H1651       H  0.54196928  0.47162146  0.72225836     0.16700
O1652       O  0.54881122  0.46972098  0.78187233    -0.60200
H1653       H  0.95959005  0.02603001  0.77929470     0.16800
O1654       O  0.95335072  0.02820993  0.71956725    -0.60300
H1655       H  0.95959837  0.04994210  0.71733833     0.43700
H1656       H  0.54115456  0.44880368  0.78632762     0.43700
C1657       C  0.00188369  0.34273657  0.87253754    -0.05400
C1658       C  0.97447766  0.35915762  0.86731292    -0.32800
C1659       C  0.97385033  0.39129625  0.86805456     0.36500
C1660       C  0.50101534  0.40773082  0.87409221    -0.05700
C1661       C  0.52841769  0.39128456  0.87922572    -0.32700
C1662       C  0.52905078  0.35917278  0.87842716     0.36400
H1663       H  0.95335359  0.34707175  0.86248761     0.16700
O1664       O  0.94666181  0.40627686  0.86208352    -0.60200
H1665       H  0.54955893  0.40331851  0.88409991     0.16800
O1666       O  0.55622372  0.34419186  0.88445837    -0.60300
H1667       H  0.56724075  0.34374885  0.86456842     0.43700
H1668       H  0.93581693  0.40698319  0.88206416     0.45300
C1669       C  0.50270379  0.09271782  0.87643631    -0.05400
C1670       C  0.97540545  0.10857659  0.86917195    -0.32800
C1671       C  0.97444962  0.14065289  0.86807518     0.36500
C1672       C  0.00107990  0.15770733  0.87457816    -0.05700
C1673       C  0.52833926  0.14185084  0.88219052    -0.32700
C1674       C  0.52927393  0.10972481  0.88330956     0.36400
H1675       H  0.95466928  0.09604588  0.86382503     0.16700
O1676       O  0.94732554  0.15497249  0.86043199    -0.60200
H1677       H  0.54906144  0.15439688  0.88755165     0.16800
O1678       O  0.55624970  0.09530807  0.89132114    -0.60300
H1679       H  0.55536060  0.09290839  0.91396578     0.43700
H1680       H  0.94752291  0.15661799  0.83770373     0.43700
C1681       C  0.74727939  0.24972475  0.21954234    -0.05400
C1682       C  0.76853361  0.23075907  0.23500724    -0.32800
C1683       C  0.76850051  0.22872117  0.26715008     0.36500
C1684       C  0.74778293  0.24669874  0.28425188    -0.05700
C1685       C  0.72662985  0.26573657  0.26882280    -0.32700
C1686       C  0.72597740  0.26701939  0.23669184     0.36400
H1687       H  0.78497850  0.21721521  0.22210797     0.16700
O1688       O  0.78974706  0.21029215  0.28166454    -0.60200
H1689       H  0.71046084  0.27957645  0.28176589     0.16800
O1690       O  0.70483010  0.28568637  0.22232686    -0.60300
H1691       H  0.71537906  0.30555610  0.21933780     0.43700
H1692       H  0.78040489  0.18961179  0.28216635     0.43700
C1693       C  0.75167523  0.25000499  0.96941401    -0.05400
C1694       C  0.72343079  0.25109458  0.98485854    -0.32800
C1695       C  0.72213387  0.25200084  0.01695698     0.36500
C1696       C  0.74945368  0.25154513  0.03451900    -0.05700
C1697       C  0.77772482  0.25027316  0.01910384    -0.32700
C1698       C  0.77901375  0.24940267  0.98694897     0.36400
H1699       H  0.70205956  0.25151599  0.97203018     0.16700
O1700       O  0.69392629  0.25316512  0.03078716    -0.60200
H1701       H  0.79906216  0.24985479  0.03198820     0.16800
O1702       O  0.80718141  0.24835643  0.97303625    -0.60300
H1703       H  0.81255539  0.22621400  0.97182531     0.43700
H1704       H  0.68867595  0.27533308  0.03205430     0.43700
C1705       C  0.74729979  0.00221246  0.21666153    -0.05400
C1706       C  0.76547405  0.02318346  0.23285996    -0.32800
C1707       C  0.76541877  0.02360957  0.26501771     0.36500
C1708       C  0.74805328  0.50197302  0.28148005    -0.05700
C1709       C  0.73031689  0.48057996  0.26525866    -0.32700
C1710       C  0.72958127  0.48081882  0.23308972     0.36400
H1711       H  0.77945114  0.03954652  0.22052010     0.16700
O1712       O  0.78355010  0.04432142  0.28022122    -0.60200
H1713       H  0.71670341  0.46389595  0.27757024     0.16800
O1714       O  0.71181689  0.45983228  0.21782887    -0.60300
H1715       H  0.72584723  0.44249678  0.21301784     0.43700
H1716       H  0.77130369  0.06357701  0.28086238     0.43700
C1717       C  0.75142957  0.00229849  0.03171416    -0.05400
C1718       C  0.72231141  0.50404653  0.01554413    -0.32800
C1719       C  0.72171854  0.50441803  0.98338064     0.36500
C1720       C  0.75116546  0.00292844  0.96647639    -0.05700
C1721       C  0.77891735  0.00103202  0.98300154    -0.32700
C1722       C  0.77923732  0.00056504  0.01521456     0.36400
H1723       H  0.70071216  0.50530719  0.02772901     0.16700
O1724       O  0.69385162  0.50607447  0.96866262    -0.60200
H1725       H  0.80058493  0.99966554  0.97094890     0.16800
O1726       O  0.80694994  0.99861305  0.03020100    -0.60300
H1727       H  0.81142722  0.97629953  0.03193346     0.43700
H1728       H  0.68915350  0.52834379  0.96691565     0.43700
C1729       C  0.74986603  0.40968112  0.12556095    -0.05400
C1730       C  0.72183586  0.39403979  0.12733446    -0.32800
C1731       C  0.72091751  0.36196357  0.12817022     0.36500
C1732       C  0.74840238  0.34465455  0.12700765    -0.05700
C1733       C  0.77646038  0.36028420  0.12528803    -0.32700
C1734       C  0.77736867  0.39240904  0.12445514     0.36400
H1735       H  0.70035811  0.40669241  0.12826426     0.16700
O1736       O  0.69291630  0.34790432  0.12994839    -0.60200
H1737       H  0.79791043  0.34758819  0.12434898     0.16800
O1738       O  0.80532723  0.40654906  0.12268335    -0.60300
H1739       H  0.80967173  0.40821890  0.10037344     0.43700
H1740       H  0.68861234  0.34617097  0.15225981     0.43700
C1741       C  0.74777117  0.09470023  0.12501110    -0.05400
C1742       C  0.77511461  0.11049383  0.13108166    -0.32800
C1743       C  0.77560597  0.14255765  0.13216310     0.36500
C1744       C  0.74844329  0.15962840  0.12680676    -0.05700
C1745       C  0.72104234  0.14385992  0.12090456    -0.32700
C1746       C  0.72055424  0.11175481  0.11982591     0.36400
H1747       H  0.79628687  0.09796008  0.13534052     0.16700
O1748       O  0.80283813  0.15685702  0.13856560    -0.60200
H1749       H  0.69988818  0.15643852  0.11668663     0.16800
O1750       O  0.69332176  0.09740978  0.11354709    -0.60300
H1751       H  0.69257693  0.09551262  0.09086397     0.43700
H1752       H  0.80327279  0.15917043  0.16123073     0.43700
C1753       C  0.49882889  0.24637695  0.28019483    -0.05400
C1754       C  0.52295370  0.23219045  0.26428649    -0.32800
C1755       C  0.52410185  0.23340193  0.23212309     0.36500
C1756       C  0.50026480  0.24802724  0.21547859    -0.05700
C1757       C  0.97577419  0.26153032  0.23154017    -0.32700
C1758       C  0.97522740  0.26121958  0.26368273     0.36400
H1759       H  0.54124565  0.22068797  0.27686828     0.16700
O1760       O  0.54798550  0.21927238  0.21718449    -0.60200
H1761       H  0.95719281  0.27277117  0.21915896     0.16800
O1762       O  0.95096253  0.27449865  0.27877554    -0.60300
H1763       H  0.95636159  0.29648725  0.28080218     0.43700
H1764       H  0.56493094  0.23436089  0.21756349     0.43700
C1765       C  0.50078046  0.25101811  0.96526416    -0.05400
C1766       C  0.97259851  0.25115830  0.98086800    -0.32800
C1767       C  0.97151256  0.25097063  0.01303233     0.36500
C1768       C  0.49898963  0.25081014  0.03037775    -0.05700
C1769       C  0.52713220  0.25076878  0.01474295    -0.32700
C1770       C  0.52821988  0.25095929  0.98262550     0.36400
H1771       H  0.95116768  0.25132773  0.96813711     0.16700
O1772       O  0.94342239  0.25131826  0.02713457    -0.60200
H1773       H  0.54858880  0.25056165  0.02742840     0.16800
O1774       O  0.55633396  0.25055389  0.96858034    -0.60300
H1775       H  0.56245342  0.27241135  0.96715828     0.43700
H1776       H  0.93724596  0.22946744  0.02837111     0.43700
C1777       C  0.99920955  0.49921319  0.21866188    -0.05400
C1778       C  0.51505068  0.47601180  0.23468843    -0.32800
C1779       C  0.51490340  0.47527933  0.26686696     0.36500
C1780       C  0.99944145  0.49852271  0.28338896    -0.05700
C1781       C  0.98414605  0.02194295  0.26706921    -0.32700
C1782       C  0.98358376  0.02208530  0.23493279     0.36400
H1783       H  0.52720943  0.45820763  0.22219605     0.16700
O1784       O  0.53019444  0.45198969  0.28187365    -0.60200
H1785       H  0.97212688  0.03998326  0.27934886     0.16800
O1786       O  0.96851140  0.04536759  0.21969758    -0.60300
H1787       H  0.94682558  0.03873912  0.21841188     0.43700
H1788       H  0.55123059  0.45978939  0.28535520     0.43700
C1789       C  0.00005240  0.50046199  0.03384124    -0.05400
C1790       C  0.52833697  0.00213663  0.01817601    -0.32800
C1791       C  0.52949402  0.00183000  0.98601427     0.36500
C1792       C  0.00207378  0.49996363  0.96870114    -0.05700
C1793       C  0.97393423  0.49841756  0.98425679    -0.32700
C1794       C  0.97272706  0.49879872  0.01638993     0.36400
H1795       H  0.54968859  0.00362298  0.03093140     0.16700
O1796       O  0.55752206  0.00388913  0.97196523    -0.60200
H1797       H  0.95258650  0.49696050  0.97149372     0.16800
O1798       O  0.94464034  0.49712260  0.03036818    -0.60300
H1799       H  0.93724740  0.51867465  0.03174889     0.43700
H1800       H  0.56552009  0.98251793  0.97118468     0.43700
C1801       C  0.99894487  0.34246072  0.12378905    -0.05400
C1802       C  0.97242665  0.35851752  0.13286747    -0.32800
C1803       C  0.97198609  0.39066052  0.13403181     0.36500
C1804       C  0.49829130  0.40741835  0.12568314    -0.05700
C1805       C  0.52472447  0.39132576  0.11649815    -0.32700
C1806       C  0.52516531  0.35925031  0.11532828     0.36400
H1807       H  0.95204320  0.34612266  0.13956397     0.16700
O1808       O  0.94576298  0.40533624  0.14359557    -0.60200
H1809       H  0.54514435  0.40364474  0.10977380     0.16800
O1810       O  0.55135771  0.34463977  0.10559294    -0.60300
H1811       H  0.54874650  0.34228838  0.08304440     0.43700
H1812       H  0.94817355  0.40756807  0.16617730     0.43700
C1813       C  0.50037669  0.09241326  0.12666185    -0.05400
C1814       C  0.52797119  0.10818273  0.12201125    -0.32800
C1815       C  0.52849197  0.14031761  0.12077587     0.36500
C1816       C  0.00100111  0.15740208  0.12403826    -0.05700
C1817       C  0.97350942  0.14160448  0.12905907    -0.32700
C1818       C  0.97300256  0.10953359  0.13040001     0.36400
H1819       H  0.54927709  0.09558584  0.11898840     0.16700
O1820       O  0.55594164  0.15464002  0.11566730    -0.60200
H1821       H  0.95217373  0.15412824  0.13216387     0.16800
O1822       O  0.94566229  0.09527593  0.13621537    -0.60300
H1823       H  0.93508033  0.09412699  0.11603881     0.43700
H1824       H  0.56556065  0.15660647  0.13616233     0.43700
O1825       O  0.52454612  0.50120541  0.08314561    -0.71700
O1826       O  0.52452390  0.99730262  0.17022113    -0.71900
O1827       O  0.52396747  0.95582607  0.12483519    -0.71700
O1828       O  0.52483663  0.54307040  0.12840871    -0.71800
O1829       O  0.97514587  0.54381728  0.12520865    -0.71700
O1830       O  0.97426086  0.95688026  0.12750488    -0.71700
O1831       O  0.97452184  0.50169427  0.16993880    -0.71700
O1832       O  0.97504405  0.99932674  0.08267323    -0.71900
V1833       V  0.52367219  0.99939192  0.12662279     1.35200
V1834       V  0.97583327  0.00038314  0.12629985     1.35200
C1835       C  0.99993312  0.00038288  0.06787962     0.77600
C1836       C  0.99961066  0.99937939  0.18482867     0.77600
C1837       C  0.49888169  0.94143279  0.12612175     0.77500
C1838       C  0.50005430  0.55838205  0.12685739     0.77500
O1839       O  0.97502251  0.74969685  0.16667138    -0.71700
O1840       O  0.97418904  0.75028617  0.07944576    -0.71900
O1841       O  0.97519999  0.70630578  0.12298346    -0.71700
O1842       O  0.97424325  0.79362004  0.12340297    -0.71800
O1843       O  0.52405005  0.79348899  0.12348811    -0.71700
O1844       O  0.52496899  0.70651882  0.12220375    -0.71700
O1845       O  0.52395454  0.75078856  0.07924633    -0.71700
O1846       O  0.52487027  0.74900687  0.16646916    -0.71900
V1847       V  0.97560814  0.74996391  0.12308760     1.35200
V1848       V  0.52347743  0.74999382  0.12284258     1.35200
C1849       C  0.50007215  0.74890372  0.18143983     0.77600
C1850       C  0.49893476  0.75072252  0.06438141     0.77600
C1851       C  0.00030611  0.69147519  0.12277872     0.77500
C1852       C  0.99909277  0.80846987  0.12353513     0.77500
O1853       O  0.72499136  0.95851825  0.12318415    -0.71700
O1854       O  0.72295383  0.54550602  0.12470453    -0.71900
O1855       O  0.72545228  0.00276236  0.08010452    -0.71700
O1856       O  0.72306838  0.50096796  0.16768059    -0.71800
O1857       O  0.77304851  0.00358445  0.16874689    -0.71700
O1858       O  0.77435618  0.50163217  0.08151860    -0.71700
O1859       O  0.77272946  0.54606163  0.12420915    -0.71700
O1860       O  0.77468130  0.95882951  0.12625964    -0.71900
V1861       V  0.72527171  0.00199592  0.12378743     1.35200
V1862       V  0.77261582  0.50252372  0.12510662     1.35200
C1863       C  0.75000916  0.94373746  0.12497993     0.77600
C1864       C  0.74755740  0.56070429  0.12447554     0.77600
C1865       C  0.74975673  0.50214383  0.06599627     0.77500
C1866       C  0.74774424  0.50224747  0.18299003     0.77500
O1867       O  0.72266930  0.75308600  0.17061775    -0.71700
O1868       O  0.72347328  0.75163542  0.08334036    -0.71900
O1869       O  0.72296776  0.70875127  0.12761729    -0.71700
O1870       O  0.72319247  0.79591596  0.12623438    -0.71800
O1871       O  0.77290666  0.79542861  0.12882688    -0.71700
O1872       O  0.77273199  0.70840741  0.12636732    -0.71700
O1873       O  0.77319901  0.75310226  0.08398784    -0.71700
O1874       O  0.77246987  0.75025169  0.17119651    -0.71900
V1875       V  0.72401820  0.75235276  0.12697337     1.35200
V1876       V  0.77186538  0.75186692  0.12759289     1.35200
C1877       C  0.74745527  0.75130045  0.18575990     0.77600
C1878       C  0.74846072  0.75225120  0.06869226     0.77600
C1879       C  0.74787704  0.69366334  0.12691393     0.77500
C1880       C  0.74807363  0.81061752  0.12755856     0.77500
O1881       O  0.52699184  0.49911356  0.83240518    -0.71700
O1882       O  0.52711298  0.00021546  0.91957406    -0.71900
O1883       O  0.52633438  0.95614383  0.87637464    -0.71700
O1884       O  0.52755584  0.54340400  0.87565331    -0.71800
O1885       O  0.97778949  0.54423699  0.87713518    -0.71700
O1886       O  0.97660112  0.95728602  0.87435319    -0.71700
O1887       O  0.97736884  0.49943828  0.91947346    -0.71700
O1888       O  0.97714208  0.00220960  0.83212117    -0.71900
V1889       V  0.52603221  0.99974869  0.87593577     1.35200
V1890       V  0.97819114  0.00078500  0.87576208     1.35200
C1891       C  0.00198480  0.00046213  0.81729467     0.77600
C1892       C  0.00227743  0.99987069  0.93446283     0.77600
C1893       C  0.50123719  0.94176903  0.87496734     0.77500
C1894       C  0.50278964  0.55871655  0.87657149     0.77500
O1895       O  0.97613263  0.75000645  0.91589833    -0.71700
O1896       O  0.97642025  0.75136290  0.82864504    -0.71900
O1897       O  0.97615356  0.70695201  0.87180516    -0.71700
O1898       O  0.97658684  0.79417612  0.87281597    -0.71800
O1899       O  0.52631654  0.79331890  0.87097875    -0.71700
O1900       O  0.52585875  0.70633324  0.87463221    -0.71700
O1901       O  0.52619432  0.74779035  0.82905671    -0.71700
O1902       O  0.52585160  0.75154825  0.91626124    -0.71900
V1903       V  0.97726140  0.75057274  0.87227863     1.35200
V1904       V  0.52509948  0.74980417  0.87268260     1.35200
C1905       C  0.50094629  0.75093264  0.93104233     0.77600
C1906       C  0.50132905  0.74932464  0.81403096     0.77600
C1907       C  0.00095284  0.69173018  0.87358655     0.77500
C1908       C  0.00160685  0.80869390  0.87197568     0.77500
O1909       O  0.72662036  0.95818842  0.87444985    -0.71700
O1910       O  0.72568654  0.54524478  0.87228352    -0.71900
O1911       O  0.72759234  0.00086549  0.82975909    -0.71700
O1912       O  0.72487688  0.50270404  0.91713216    -0.71800
O1913       O  0.77665876  0.00204666  0.91773762    -0.71700
O1914       O  0.77544240  0.49926086  0.83056646    -0.71700
O1915       O  0.77550757  0.54439202  0.87308312    -0.71700
O1916       O  0.77638954  0.95710800  0.87555696    -0.71900
V1917       V  0.72824585  0.00172018  0.87334000     1.35200
V1918       V  0.77405944  0.50074185  0.87422438     1.35200
C1919       C  0.75127514  0.94273175  0.87550661     0.77600
C1920       C  0.75072049  0.55971623  0.87232892     0.77600
C1921       C  0.75063382  0.49948139  0.81536529     0.77500
C1922       C  0.74959304  0.50252484  0.93249082     0.77500
O1923       O  0.72660594  0.74899970  0.92026712    -0.71700
O1924       O  0.72612015  0.75423393  0.83321401    -0.71900
O1925       O  0.72623877  0.70781649  0.87413575    -0.71700
O1926       O  0.72672847  0.79502633  0.87914006    -0.71800
O1927       O  0.77636173  0.79427471  0.87567741    -0.71700
O1928       O  0.77593118  0.70725876  0.87787528    -0.71700
O1929       O  0.77585560  0.74966310  0.83313321    -0.71700
O1930       O  0.77627423  0.75176950  0.92044316    -0.71900
V1931       V  0.72734077  0.75145732  0.87672643     1.35200
V1932       V  0.77517197  0.75076819  0.87678311     1.35200
C1933       C  0.75146515  0.75027676  0.93533147     0.77600
C1934       C  0.75089910  0.75228342  0.81841021     0.77600
C1935       C  0.75108850  0.69262079  0.87572395     0.77500
C1936       C  0.75168434  0.80960042  0.87743450     0.77500
O1937       O  0.49905867  0.52561789  0.41898627    -0.71700
O1938       O  0.99795138  0.52411355  0.33168519    -0.71900
O1939       O  0.95503001  0.52445982  0.37542094    -0.71700
O1940       O  0.54209325  0.52540687  0.37489985    -0.71800
O1941       O  0.54306293  0.97561645  0.37731047    -0.71700
O1942       O  0.95587571  0.97463128  0.37488387    -0.71700
O1943       O  0.50064284  0.97426265  0.33252152    -0.71700
O1944       O  0.99857732  0.97580953  0.41964346    -0.71900
V1945       V  0.99857025  0.52394626  0.37529926     1.35200
V1946       V  0.99947700  0.97604762  0.37608087     1.35200
C1947       C  0.99887083  0.00090887  0.43422362     0.77600
C1948       C  0.99944236  0.99893923  0.31718104     0.77600
C1949       C  0.94056159  0.49939913  0.37492448     0.77500
C1950       C  0.55753561  0.50072929  0.37609752     0.77500
O1951       O  0.99860212  0.72122555  0.41591472    -0.71700
O1952       O  0.50030972  0.72125225  0.32858231    -0.71900
O1953       O  0.54285148  0.72102848  0.37325718    -0.71700
O1954       O  0.95569791  0.72156974  0.37135100    -0.71800
O1955       O  0.95568626  0.77135114  0.37308272    -0.71700
O1956       O  0.54269122  0.77081108  0.37144593    -0.71700
O1957       O  0.99790413  0.77121698  0.32865079    -0.71700
O1958       O  0.50006337  0.77096487  0.41588032    -0.71900
V1959       V  0.49931933  0.72218393  0.37224766     1.35200
V1960       V  0.49913586  0.77008615  0.37224413     1.35200
C1961       C  0.49936966  0.74604735  0.43085054     0.77600
C1962       C  0.49904021  0.74624991  0.31382112     0.77600
C1963       C  0.55771198  0.74584805  0.37252948     0.77500
C1964       C  0.94075957  0.74659777  0.37234779     0.77500
O1965       O  0.70566723  0.97568493  0.37506942    -0.71700
O1966       O  0.79267749  0.97599211  0.37201005    -0.71900
O1967       O  0.75077535  0.97538186  0.41703690    -0.71700
O1968       O  0.74728731  0.97639960  0.32981680    -0.71800
O1969       O  0.74925903  0.52621612  0.33046308    -0.71700
O1970       O  0.74843074  0.52514217  0.41766118    -0.71700
O1971       O  0.79236725  0.52575370  0.37442407    -0.71700
O1972       O  0.70515354  0.52549301  0.37351702    -0.71900
V1973       V  0.74912595  0.97682345  0.37346504     1.35200
V1974       V  0.74878849  0.52470112  0.37401623     1.35200
C1975       C  0.69053956  0.50050561  0.37468969     0.77600
C1976       C  0.80748546  0.50088895  0.37303368     0.77600
C1977       C  0.74964116  0.00006256  0.43228022     0.77500
C1978       C  0.74811349  0.00153819  0.31525905     0.77500
O1979       O  0.70578330  0.72259934  0.37555883    -0.71700
O1980       O  0.79274152  0.72197284  0.37819925    -0.71900
O1981       O  0.74822058  0.72295357  0.42071304    -0.71700
O1982       O  0.75053914  0.72195146  0.33319482    -0.71800
O1983       O  0.74744159  0.77179601  0.33281617    -0.71700
O1984       O  0.75079583  0.77266884  0.41982731    -0.71700
O1985       O  0.79281560  0.77167799  0.37495054    -0.71700
O1986       O  0.70565031  0.77237912  0.37747342    -0.71900
V1987       V  0.74929048  0.72329920  0.37693325     1.35200
V1988       V  0.74920978  0.77117267  0.37631905     1.35200
C1989       C  0.69078472  0.74756772  0.37614303     0.77600
C1990       C  0.80771999  0.74663394  0.37641561     0.77600
C1991       C  0.74973411  0.74809028  0.43524719     0.77500
C1992       C  0.74880782  0.74682045  0.31817149     0.77500
O1993       O  0.00165778  0.97352793  0.66987954    -0.71700
O1994       O  0.49924682  0.97397564  0.58254500    -0.71900
O1995       O  0.54382727  0.97352870  0.62514686    -0.71700
O1996       O  0.95673561  0.97391893  0.62705893    -0.71800
O1997       O  0.95650020  0.52380790  0.62559704    -0.71700
O1998       O  0.54361454  0.52337883  0.62727227    -0.71700
O1999       O  0.00072307  0.52380981  0.58277569    -0.71700
O2000       O  0.49907224  0.52350972  0.67001365    -0.71900
V2001       V  0.50032545  0.97468942  0.62618798     1.35200
V2002       V  0.50001794  0.52266606  0.62641816     1.35200
C2003       C  0.50033425  0.49854939  0.68481909     0.77600
C2004       C  0.49997707  0.49897969  0.56775216     0.77600
C2005       C  0.55870297  0.99832595  0.62598621     0.77500
C2006       C  0.94175178  0.99891883  0.62629428     0.77500
O2007       O  0.50033468  0.72377118  0.57949364    -0.71700
O2008       O  0.00160994  0.72454572  0.66682262    -0.71900
O2009       O  0.95719953  0.72409491  0.62370132    -0.71700
O2010       O  0.54456485  0.72459173  0.62294976    -0.71800
O2011       O  0.54361121  0.77443218  0.62242413    -0.71700
O2012       O  0.95669679  0.77390469  0.62283814    -0.71700
O2013       O  0.50031946  0.77440539  0.66628280    -0.71700
O2014       O  0.99968378  0.77361416  0.57893703    -0.71900
V2015       V  0.00088509  0.72520079  0.62318073     1.35200
V2016       V  0.00014185  0.77310107  0.62262248     1.35200
C2017       C  0.99971416  0.74856199  0.56424615     0.77600
C2018       C  0.00098201  0.74959931  0.68145008     0.77600
C2019       C  0.94201264  0.74901030  0.62365217     0.77500
C2020       C  0.55899589  0.74971896  0.62276221     0.77500
O2021       O  0.70677295  0.97436323  0.62521973    -0.71700
O2022       O  0.79379938  0.97388264  0.62244420    -0.71900
O2023       O  0.75215598  0.97335794  0.66752542    -0.71700
O2024       O  0.74872703  0.97496286  0.58023520    -0.71800
O2025       O  0.75097881  0.52475582  0.58112936    -0.71700
O2026       O  0.74888494  0.52333336  0.66830918    -0.71700
O2027       O  0.79369275  0.52366714  0.62597039    -0.71700
O2028       O  0.70654289  0.52426516  0.62366040    -0.71900
V2029       V  0.75032901  0.97508851  0.62386553     1.35200
V2030       V  0.75007493  0.52305433  0.62473345     1.35200
C2031       C  0.69167104  0.49945731  0.62454523     0.77600
C2032       C  0.80862679  0.49866866  0.62444146     0.77600
C2033       C  0.75078275  0.99808098  0.68267322     0.77500
C2034       C  0.74960242  0.00011418  0.56566007     0.77500
O2035       O  0.74990178  0.72577167  0.58440611    -0.71700
O2036       O  0.75161487  0.72819387  0.67153382    -0.71900
O2037       O  0.70728892  0.72663552  0.62868126    -0.71700
O2038       O  0.79424763  0.72728327  0.62735784    -0.71800
O2039       O  0.79366270  0.77709834  0.62736495    -0.71700
O2040       O  0.70636364  0.77637344  0.62554688    -0.71700
O2041       O  0.74919103  0.77796563  0.67024312    -0.71700
O2042       O  0.75075330  0.77555369  0.58287143    -0.71900
V2043       V  0.75075346  0.72796435  0.62796994     1.35200
V2044       V  0.75001712  0.77582559  0.62656159     1.35200
C2045       C  0.75023094  0.75020628  0.56867975     0.77600
C2046       C  0.75033078  0.75342254  0.68583564     0.77600
C2047       C  0.69190903  0.75130796  0.62704874     0.77500
C2048       C  0.80889877  0.75223596  0.62722862     0.77500
C2049       C  0.90796150  0.74945493  0.62469203    -0.05400
C2050       C  0.89210900  0.77740281  0.62033777    -0.32800
C2051       C  0.86001763  0.77881125  0.62123374     0.36500
C2052       C  0.84296644  0.75194763  0.62671683    -0.05700
C2053       C  0.85883189  0.72404974  0.63125673    -0.32700
C2054       C  0.89091714  0.72266152  0.63045232     0.36400
H2055       H  0.90459869  0.79837705  0.61598000     0.16700
O2056       O  0.84569182  0.80660963  0.61663580    -0.60200
H2057       H  0.84634514  0.70308085  0.63564302     0.16800
O2058       O  0.90524903  0.69492603  0.63537190    -0.60300
H2059       H  0.90851479  0.69371567  0.65793214     0.43700
H2060       H  0.84265857  0.80820801  0.59406727     0.43700
C2061       C  0.65789860  0.75081004  0.62648243    -0.05400
C2062       C  0.64150836  0.77657161  0.61568488    -0.32800
C2063       C  0.60942430  0.77640513  0.61398104     0.36500
C2064       C  0.59299044  0.75024565  0.62344047    -0.05700
C2065       C  0.60936348  0.72451483  0.63431634    -0.32700
C2066       C  0.64144480  0.72471257  0.63611337     0.36400
H2067       H  0.65360637  0.79682831  0.60803725     0.16700
O2068       O  0.59445153  0.80188539  0.60270452    -0.60200
H2069       H  0.59723969  0.70428716  0.64200293     0.16800
O2070       O  0.65638317  0.69931922  0.64763149    -0.60300
H2071       H  0.65885532  0.70337061  0.66992697     0.43700
H2072       H  0.59196456  0.79803536  0.58037449     0.43700
C2073       C  0.84267417  0.49840870  0.62487713    -0.05400
C2074       C  0.85849856  0.52519827  0.63306529    -0.32800
C2075       C  0.89060957  0.52572506  0.63384673     0.36500
C2076       C  0.90774587  0.99903948  0.62612090    -0.05700
C2077       C  0.89196378  0.97218029  0.61814541    -0.32700
C2078       C  0.85985532  0.97163550  0.61733227     0.36400
H2079       H  0.84596265  0.54586928  0.63917566     0.16700
O2080       O  0.90500928  0.55211170  0.64299686    -0.60200
H2081       H  0.90454560  0.95149644  0.61216221     0.16800
O2082       O  0.84552644  0.94506518  0.60861973    -0.60300
H2083       H  0.84443106  0.93244139  0.62758878     0.43700
H2084       H  0.90576936  0.56521744  0.62434016     0.43700
C2085       C  0.59275313  0.99825564  0.62549414    -0.05400
C2086       C  0.60849909  0.52577272  0.63102381    -0.32800
C2087       C  0.64059445  0.52651760  0.63090030     0.36500
C2088       C  0.65764341  0.49952899  0.62483697    -0.05700
C2089       C  0.64192539  0.97200139  0.61935296    -0.32700
C2090       C  0.60982175  0.97127226  0.61934505     0.36400
H2091       H  0.59599753  0.54680292  0.63586408     0.16700
O2092       O  0.65495089  0.55379372  0.63693948    -0.60200
H2093       H  0.65445699  0.95097901  0.61454562     0.16800
O2094       O  0.59549430  0.94399531  0.61322472    -0.60300
H2095       H  0.59273133  0.94362859  0.59057595     0.43700
H2096       H  0.65817738  0.55398862  0.65953207     0.43700
C2097       C  0.75017869  0.74878883  0.46938708    -0.05400
C2098       C  0.74389349  0.72192774  0.48607423    -0.32800
C2099       C  0.74366554  0.72201881  0.51827527     0.36500
C2100       C  0.75009478  0.74927424  0.53456955    -0.05700
C2101       C  0.75645967  0.77610297  0.51788723    -0.32700
C2102       C  0.75670362  0.77602188  0.48571617     0.36400
H2103       H  0.73877122  0.70073407  0.47414953     0.16700
O2104       O  0.73694899  0.69529237  0.53347644    -0.60200
H2105       H  0.76157287  0.79730934  0.52979856     0.16800
O2106       O  0.76337771  0.80280113  0.47058236    -0.60300
H2107       H  0.78600802  0.80270611  0.46839192     0.43700
H2108       H  0.71435160  0.69557923  0.53593931     0.43700
C2109       C  0.74931540  0.00052968  0.53154500    -0.05400
C2110       C  0.75117885  0.97265318  0.51541478    -0.32800
C2111       C  0.75148741  0.97208267  0.48326660     0.36500
C2112       C  0.74964802  0.99976824  0.46639808    -0.05700
C2113       C  0.74782740  0.52768028  0.48260859    -0.32700
C2114       C  0.74758742  0.52825761  0.51478488     0.36400
H2115       H  0.75264424  0.95104221  0.52773623     0.16700
O2116       O  0.75330592  0.94421493  0.46870126    -0.60200
H2117       H  0.74637145  0.54928207  0.47026929     0.16800
O2118       O  0.74561420  0.55610376  0.52937675    -0.60300
H2119       H  0.72333495  0.56050634  0.53104457     0.43700
H2120       H  0.77555345  0.93958797  0.46722932     0.43700
C2121       C  0.49918803  0.74806595  0.53009587    -0.05400
C2122       C  0.50621424  0.72069724  0.51443745    -0.32800
C2123       C  0.50644688  0.71964286  0.48225038     0.36500
C2124       C  0.49931671  0.74622522  0.46495456    -0.05700
C2125       C  0.99209788  0.77356900  0.48061550    -0.32700
C2126       C  0.99180057  0.77460613  0.51277653     0.36400
H2127       H  0.51198351  0.70002301  0.52716908     0.16700
O2128       O  0.51399694  0.69253269  0.46804450    -0.60200
H2129       H  0.98630973  0.79424225  0.46788620     0.16800
O2130       O  0.98408421  0.80169486  0.52692546    -0.60300
H2131       H  0.96155416  0.80082007  0.52976224     0.43700
H2132       H  0.53651876  0.69330936  0.46512029     0.43700
C2133       C  0.90672410  0.74686264  0.37305583    -0.05400
C2134       C  0.89087902  0.71908004  0.37629895    -0.32800
C2135       C  0.85881358  0.71859467  0.37781032     0.36500
C2136       C  0.84176881  0.74626123  0.37571407    -0.05700
C2137       C  0.85763207  0.77402905  0.37245949    -0.32700
C2138       C  0.88968302  0.77451844  0.37102871     0.36400
H2139       H  0.90336711  0.69752688  0.37796807     0.16700
O2140       O  0.84449814  0.69083413  0.38106370    -0.60200
H2141       H  0.84517370  0.79559956  0.37081260     0.16800
O2142       O  0.90399248  0.80227984  0.36777355    -0.60300
H2143       H  0.90538729  0.80565216  0.34527328     0.43700
H2144       H  0.84368746  0.68715132  0.40354371     0.43700
C2145       C  0.65675191  0.74749900  0.37509607    -0.05400
C2146       C  0.64108321  0.71956474  0.37807256    -0.32800
C2147       C  0.60900314  0.71858466  0.37727199     0.36500
C2148       C  0.59177081  0.74588318  0.37314338    -0.05700
C2149       C  0.60745823  0.77378888  0.36992788    -0.32700
C2150       C  0.63954469  0.77476106  0.37074728     0.36400
H2151       H  0.65371011  0.69826465  0.38130491     0.16700
O2152       O  0.59486990  0.69072667  0.38049663    -0.60200
H2153       H  0.59484191  0.79508601  0.36664593     0.16800
O2154       O  0.65372150  0.80256238  0.36726257    -0.60300
H2155       H  0.65663504  0.80497209  0.34478310     0.43700
H2156       H  0.59244135  0.68785406  0.40298035     0.43700
C2157       C  0.50004550  0.49927042  0.53362502    -0.05400
C2158       C  0.99654446  0.52728410  0.51780508    -0.32800
C2159       C  0.99635821  0.52835472  0.48561288     0.36500
C2160       C  0.99935868  0.00098231  0.46834929    -0.05700
C2161       C  0.50309296  0.97301671  0.48418339    -0.32700
C2162       C  0.50353460  0.97195596  0.51632418     0.36400
H2163       H  0.99380331  0.54856580  0.53040615     0.16700
O2164       O  0.99252997  0.55621445  0.47128289    -0.60200
H2165       H  0.50585233  0.95170922  0.47162863     0.16800
O2166       O  0.50812515  0.94416335  0.53058078    -0.60300
H2167       H  0.48758800  0.93450654  0.53126094     0.43700
H2168       H  0.01342741  0.56500375  0.47001722     0.43700
C2169       C  0.84151404  0.50073133  0.37282608    -0.05400
C2170       C  0.85742645  0.97356889  0.38011207    -0.32800
C2171       C  0.88954772  0.97266062  0.38065678     0.36500
C2172       C  0.90651924  0.49931379  0.37402914    -0.05700
C2173       C  0.89052069  0.52641515  0.36625862    -0.32700
C2174       C  0.85838708  0.52729523  0.36561980     0.36400
H2175       H  0.84499822  0.95290763  0.38591335     0.16700
O2176       O  0.90408369  0.94582609  0.38892371    -0.60200
H2177       H  0.90294528  0.54707923  0.36045735     0.16800
O2178       O  0.84380466  0.55399090  0.35695299    -0.60300
H2179       H  0.84316142  0.56678678  0.37576749     0.43700
H2180       H  0.90523020  0.93357159  0.36978062     0.43700
C2181       C  0.65653790  0.50038488  0.37547250    -0.05400
C2182       C  0.64009128  0.52682292  0.36658147    -0.32800
C2183       C  0.60797298  0.52730323  0.36663943     0.36500
C2184       C  0.59155644  0.50107406  0.37593971    -0.05700
C2185       C  0.60793892  0.97467322  0.38498847    -0.32700
C2186       C  0.64005871  0.97423614  0.38503793     0.36400
H2187       H  0.65214947  0.54717331  0.35912252     0.16700
O2188       O  0.59296002  0.55350916  0.35725913    -0.60200
H2189       H  0.59588860  0.95431095  0.39242967     0.16800
O2190       O  0.65509251  0.94815810  0.39475265    -0.60300
H2191       H  0.65837418  0.95105661  0.41713382     0.43700
H2192       H  0.58975920  0.55094490  0.33483209     0.43700
C2193       C  0.75032672  0.75380853  0.71991871    -0.05400
C2194       C  0.75885620  0.72699900  0.73603673    -0.32800
C2195       C  0.75914446  0.72638274  0.76816292     0.36500
C2196       C  0.75064806  0.75269168  0.78473293    -0.05700
C2197       C  0.74161387  0.77935977  0.76896992    -0.32700
C2198       C  0.74174997  0.78022364  0.73675574     0.36400
H2199       H  0.76549060  0.70640043  0.72372662     0.16700
O2200       O  0.76749226  0.69985796  0.78319770    -0.60200
H2201       H  0.73480487  0.79966575  0.78168944     0.16800
O2202       O  0.73266312  0.80669175  0.72207258    -0.60300
H2203       H  0.75129219  0.81958416  0.72121755     0.43700
H2204       H  0.74795460  0.68926022  0.78766712     0.43700
C2205       C  0.75242933  0.99854988  0.78125731    -0.05400
C2206       C  0.72839726  0.51538026  0.76503819    -0.32800
C2207       C  0.72812998  0.51540942  0.73288074     0.36500
C2208       C  0.75085529  0.99778501  0.71647804    -0.05700
C2209       C  0.77284900  0.98030089  0.73253543    -0.32700
C2210       C  0.77409662  0.98101820  0.76474203     0.36400
H2211       H  0.71140725  0.52893906  0.77719943     0.16700
O2212       O  0.70629153  0.53241776  0.71751550    -0.60200
H2213       H  0.78949590  0.96660501  0.72005873     0.16800
O2214       O  0.79581381  0.96365552  0.77985948    -0.60300
H2215       H  0.81460045  0.97637510  0.77996820     0.43700
H2216       H  0.68946683  0.51786339  0.71298167     0.43700
C2217       C  0.75189850  0.84367010  0.87728350    -0.05400
C2218       C  0.72437409  0.86001799  0.88188965    -0.32800
C2219       C  0.72374919  0.89216285  0.88158070     0.36500
C2220       C  0.75098717  0.90871040  0.87645382    -0.05700
C2221       C  0.77851518  0.89237343  0.87202806    -0.32700
C2222       C  0.77913330  0.86026762  0.87220954     0.36400
H2223       H  0.70313403  0.84788050  0.88583000     0.16700
O2224       O  0.69631399  0.90704530  0.88624091    -0.60200
H2225       H  0.79974798  0.90449671  0.86799157     0.16800
O2226       O  0.80657950  0.84547778  0.86733863    -0.60300
H2227       H  0.80815334  0.84332951  0.84471006     0.43700
H2228       H  0.69491070  0.90984387  0.90880580     0.43700
C2229       C  0.75097353  0.59370628  0.87218119    -0.05400
C2230       C  0.77571298  0.60926206  0.88563175    -0.32800
C2231       C  0.77586698  0.64136237  0.88725485     0.36500
C2232       C  0.75120716  0.65861843  0.87482810    -0.05700
C2233       C  0.72659243  0.64306134  0.86109808    -0.32700
C2234       C  0.72640906  0.61093147  0.85956491     0.36400
H2235       H  0.79470291  0.59646722  0.89565764     0.16700
O2236       O  0.80000413  0.65554461  0.90160547    -0.60200
H2237       H  0.70757790  0.65585390  0.85112038     0.16800
O2238       O  0.70223515  0.59666009  0.84537248    -0.60300
H2239       H  0.70882569  0.59360742  0.82379472     0.43700
H2240       H  0.79349668  0.65814425  0.92326489     0.43700
C2241       C  0.50101923  0.74974604  0.71540585    -0.05400
C2242       C  0.51652565  0.72633781  0.73160844    -0.32800
C2243       C  0.51722512  0.72624617  0.76381190     0.36500
C2244       C  0.50133892  0.74911976  0.78022959    -0.05700
C2245       C  0.98526855  0.77211364  0.76415210    -0.32700
C2246       C  0.98550222  0.77289559  0.73197407     0.36400
H2247       H  0.52851521  0.70831715  0.71927272     0.16700
O2248       O  0.53238654  0.70302263  0.77904763    -0.60200
H2249       H  0.97291670  0.78981305  0.77660472     0.16800
O2250       O  0.96950395  0.79568135  0.71693949    -0.60300
H2251       H  0.98358754  0.81348133  0.71644873     0.43700
H2252       H  0.55398725  0.70988787  0.78061990     0.43700
C2253       C  0.50038643  0.49864386  0.71860924    -0.05400
C2254       C  0.52394662  0.98349547  0.73461910    -0.32800
C2255       C  0.52501290  0.98429892  0.76678947     0.36500
C2256       C  0.00190235  0.49985374  0.78341398    -0.05700
C2257       C  0.97788738  0.51433815  0.76716737    -0.32700
C2258       C  0.97729669  0.51421267  0.73498011     0.36400
H2259       H  0.54191156  0.97154173  0.72219108     0.16700
O2260       O  0.54870297  0.96965012  0.78180472    -0.60200
H2261       H  0.95973498  0.52615967  0.77943747     0.16800
O2262       O  0.95346091  0.52837391  0.71972052    -0.60300
H2263       H  0.95972953  0.55010045  0.71749905     0.43700
H2264       H  0.54104481  0.94873607  0.78627486     0.43700
C2265       C  0.00183832  0.84273454  0.87237725    -0.05400
C2266       C  0.97439925  0.85913722  0.86724661    -0.32800
C2267       C  0.97374035  0.89127722  0.86803508     0.36500
C2268       C  0.50090222  0.90772753  0.87401302    -0.05700
C2269       C  0.52832875  0.89129653  0.87906060    -0.32700
C2270       C  0.52899071  0.85918918  0.87822289     0.36400
H2271       H  0.95327278  0.84703670  0.86247030     0.16700
O2272       O  0.94651859  0.90624169  0.86217725    -0.60200
H2273       H  0.54947365  0.90334007  0.88389320     0.16800
O2274       O  0.55619158  0.84423021  0.88417640    -0.60300
H2275       H  0.56715281  0.84379881  0.86425479     0.43700
H2276       H  0.93574913  0.90692526  0.88219966     0.45300
C2277       C  0.50267640  0.59271916  0.87651616    -0.05400
C2278       C  0.97539602  0.60857271  0.86918122    -0.32800
C2279       C  0.97445089  0.64065038  0.86804690     0.36500
C2280       C  0.00107302  0.65770579  0.87459815    -0.05700
C2281       C  0.52830792  0.64185322  0.88226664    -0.32700
C2282       C  0.52923573  0.60973079  0.88341525     0.36400
H2283       H  0.95467168  0.59603711  0.86379855     0.16700
O2284       O  0.94735089  0.65496889  0.86031231    -0.60200
H2285       H  0.54902314  0.65440018  0.88765240     0.16800
O2286       O  0.55620038  0.59531990  0.89147320    -0.60300
H2287       H  0.55528410  0.59294340  0.91411869     0.43700
H2288       H  0.94761469  0.65659470  0.83758448     0.43700
C2289       C  0.74731486  0.75001321  0.21962399    -0.05400
C2290       C  0.76860950  0.73104443  0.23501668    -0.32800
C2291       C  0.76873993  0.72905729  0.26715415     0.36500
C2292       C  0.74810552  0.74703673  0.28434523    -0.05700
C2293       C  0.72704669  0.76626365  0.26900033    -0.32700
C2294       C  0.72625959  0.76753403  0.23685774     0.36400
H2295       H  0.78494473  0.71742173  0.22206110     0.16700
O2296       O  0.79004508  0.71062701  0.28157862    -0.60200
H2297       H  0.71100220  0.78018494  0.28201028     0.16800
O2298       O  0.70519815  0.78635588  0.22256551    -0.60300
H2299       H  0.71596750  0.80606121  0.21929894     0.43700
H2300       H  0.78072460  0.68993690  0.28208067     0.43700
C2301       C  0.75119931  0.75034786  0.96945939    -0.05400
C2302       C  0.72295016  0.75003274  0.98490876    -0.32800
C2303       C  0.72162610  0.75083840  0.01701980     0.36500
C2304       C  0.74893384  0.75174335  0.03456958    -0.05700
C2305       C  0.77721128  0.75189807  0.01913762    -0.32700
C2306       C  0.77852905  0.75112130  0.98699060     0.36400
H2307       H  0.70159674  0.74936523  0.97207675     0.16700
O2308       O  0.69342373  0.75041673  0.03087860    -0.60200
H2309       H  0.79854553  0.75256608  0.03200167     0.16800
O2310       O  0.80670705  0.75151764  0.97308123    -0.60300
H2311       H  0.81321202  0.72967300  0.97189214     0.43700
H2312       H  0.68686483  0.77225007  0.03199121     0.43700
C2313       C  0.74738245  0.50212425  0.21676115    -0.05400
C2314       C  0.76551052  0.52315785  0.23292356    -0.32800
C2315       C  0.76548780  0.52359050  0.26508113     0.36500
C2316       C  0.74790344  0.00204356  0.28139449    -0.05700
C2317       C  0.73009205  0.98073065  0.26514398    -0.32700
C2318       C  0.72938947  0.98098094  0.23296711     0.36400
H2319       H  0.77939664  0.53958018  0.22055894     0.16700
O2320       O  0.78355195  0.54437720  0.28026136    -0.60200
H2321       H  0.71641087  0.96409043  0.27743855     0.16800
O2322       O  0.71157555  0.96005680  0.21767951    -0.60300
H2323       H  0.72554968  0.94266468  0.21290545     0.43700
H2324       H  0.77124570  0.56359602  0.28087844     0.43700
C2325       C  0.75017131  0.50220386  0.03185741    -0.05400
C2326       C  0.72371619  0.00424963  0.01517377    -0.32800
C2327       C  0.72338580  0.00466566  0.98300822     0.36500
C2328       C  0.74936806  0.50275145  0.96664948    -0.05700
C2329       C  0.77725720  0.50092038  0.98295790    -0.32700
C2330       C  0.77784381  0.50049622  0.01515278     0.36400
H2331       H  0.70202074  0.00555299  0.02718297     0.16700
O2332       O  0.69562885  0.00642964  0.96808934    -0.60200
H2333       H  0.79883866  0.49959813  0.97074773     0.16800
O2334       O  0.80568124  0.49862842  0.02991718    -0.60300
H2335       H  0.81019570  0.47632581  0.03169981     0.43700
H2336       H  0.69104615  0.02871725  0.96627687     0.43700
C2337       C  0.75002450  0.90968894  0.12577159    -0.05400
C2338       C  0.72192781  0.89416412  0.12761693    -0.32800
C2339       C  0.72088619  0.86209380  0.12856084     0.36500
C2340       C  0.74830378  0.84468430  0.12736830    -0.05700
C2341       C  0.77642687  0.86020224  0.12571750    -0.32700
C2342       C  0.77746324  0.89231446  0.12484014     0.36400
H2343       H  0.70049968  0.90690461  0.12851186     0.16700
O2344       O  0.69283936  0.84814052  0.13046508    -0.60200
H2345       H  0.79783347  0.84742735  0.12484299     0.16800
O2346       O  0.80548455  0.90634336  0.12318070    -0.60300
H2347       H  0.80998122  0.90788596  0.10089301     0.43700
H2348       H  0.68865967  0.84636556  0.15279741     0.43700
C2349       C  0.74716430  0.59471937  0.12484661    -0.05400
C2350       C  0.77454487  0.61049793  0.13077701    -0.32800
C2351       C  0.77508770  0.64255835  0.13177511     0.36500
C2352       C  0.74792278  0.65966082  0.12653665    -0.05700
C2353       C  0.72050087  0.64391376  0.12063440    -0.32700
C2354       C  0.71997795  0.61179598  0.11958319     0.36400
H2355       H  0.79571679  0.59795357  0.13500640     0.16700
O2356       O  0.80237971  0.65682348  0.13799254    -0.60200
H2357       H  0.69936229  0.65651875  0.11641770     0.16800
O2358       O  0.69275377  0.59746043  0.11324635    -0.60300
H2359       H  0.69212207  0.59543923  0.09057059     0.43700
H2360       H  0.80300780  0.65906571  0.16066043     0.43700
C2361       C  0.49898045  0.74646995  0.28007991    -0.05400
C2362       C  0.52305196  0.73227494  0.26411193    -0.32800
C2363       C  0.52405730  0.73338709  0.23194805     0.36500
C2364       C  0.50014580  0.74794882  0.21535963    -0.05700
C2365       C  0.97568245  0.76150017  0.23148475    -0.32700
C2366       C  0.97526842  0.76128799  0.26363628     0.36400
H2367       H  0.54140032  0.72081099  0.27664624     0.16700
O2368       O  0.54787580  0.71920721  0.21695406    -0.60200
H2369       H  0.95703526  0.77267100  0.21913988     0.16800
O2370       O  0.95101658  0.77452054  0.27879176    -0.60300
H2371       H  0.95635467  0.79652936  0.28075939     0.43700
H2372       H  0.56483857  0.73427836  0.21724853     0.43700
C2373       C  0.50068934  0.75122297  0.96515239    -0.05400
C2374       C  0.97251372  0.75122633  0.98077138    -0.32800
C2375       C  0.97143466  0.75105633  0.01293647     0.36500
C2376       C  0.49891543  0.75105535  0.03026865    -0.05700
C2377       C  0.52705271  0.75120867  0.01463113    -0.32700
C2378       C  0.52813203  0.75138441  0.98251351     0.36400
H2379       H  0.95108373  0.75124511  0.96804033     0.16700
O2380       O  0.94334609  0.75122835  0.02704188    -0.60200
H2381       H  0.54851066  0.75115624  0.02731409     0.16800
O2382       O  0.55624757  0.75118084  0.96846870    -0.60300
H2383       H  0.56217326  0.77308746  0.96697376     0.43700
H2384       H  0.93734292  0.72933217  0.02835084     0.43700
C2385       C  0.99947557  0.99921382  0.21856214    -0.05400
C2386       C  0.51526415  0.97599847  0.23462060    -0.32800
C2387       C  0.51504516  0.97527077  0.26679771     0.36500
C2388       C  0.99956054  0.99852654  0.28328108    -0.05700
C2389       C  0.98395305  0.52191530  0.26720939    -0.32700
C2390       C  0.98331599  0.52205742  0.23507049     0.36400
H2391       H  0.52742315  0.95817606  0.22215422     0.16700
O2392       O  0.53028327  0.95196995  0.28184051    -0.60200
H2393       H  0.97194037  0.53994029  0.27951763     0.16800
O2394       O  0.96817931  0.54532068  0.21987051    -0.60300
H2395       H  0.94650445  0.53865416  0.21861640     0.43700
H2396       H  0.55131915  0.95975112  0.28536563     0.43700
C2397       C  0.00020358  0.00051193  0.03375015    -0.05400
C2398       C  0.52820640  0.50211130  0.01830503    -0.32800
C2399       C  0.52941033  0.50180504  0.98614646     0.36500
C2400       C  0.00213218  0.00001052  0.96860402    -0.05700
C2401       C  0.97401317  0.99850011  0.98419865    -0.32700
C2402       C  0.97285149  0.99888360  0.01633400     0.36400
H2403       H  0.54953919  0.50361850  0.03108949     0.16700
O2404       O  0.55745679  0.50388492  0.97213743    -0.60200
H2405       H  0.95264650  0.99706466  0.97146473     0.16800
O2406       O  0.94478097  0.99724077  0.03034914    -0.60300
H2407       H  0.93741706  0.01880144  0.03174275     0.43700
H2408       H  0.56546792  0.48251790  0.97136022     0.43700
C2409       C  0.99904766  0.84247660  0.12389345    -0.05400
C2410       C  0.97255391  0.85857762  0.13295739    -0.32800
C2411       C  0.97216486  0.89071773  0.13409902     0.36500
C2412       C  0.49849568  0.90742541  0.12571836    -0.05700
C2413       C  0.52492645  0.89128932  0.11660726    -0.32700
C2414       C  0.52532744  0.85921412  0.11548838     0.36400
H2415       H  0.95214564  0.84621991  0.13964744     0.16700
O2416       O  0.94597069  0.90543974  0.14367172    -0.60200
H2417       H  0.54537225  0.90357219  0.10989509     0.16800
O2418       O  0.55152778  0.84455520  0.10584452    -0.60300
H2419       H  0.54898703  0.84219851  0.08328874     0.43700
H2420       H  0.94842642  0.90773326  0.16624191     0.43700
C2421       C  0.50009925  0.59243352  0.12650943    -0.05400
C2422       C  0.52769621  0.60818737  0.12181927    -0.32800
C2423       C  0.52822367  0.64031967  0.12049407     0.36500
C2424       C  0.00073648  0.65742463  0.12374234    -0.05700
C2425       C  0.97323164  0.64164129  0.12873451    -0.32700
C2426       C  0.97271618  0.60956988  0.13013571     0.36400
H2427       H  0.54900223  0.59557891  0.11884335     0.16700
O2428       O  0.55567525  0.65462009  0.11533099    -0.60200
H2429       H  0.95189550  0.65417766  0.13178694     0.16800
O2430       O  0.94535613  0.59533012  0.13589871    -0.60300
H2431       H  0.93485287  0.59410582  0.11568606     0.43700
H2432       H  0.56533877  0.65657682  0.13580554     0.43700
loop_ 
_geom_bond_atom_site_label_1 
_geom_bond_atom_site_label_2 
_geom_bond_distance 
_geom_bond_site_symmetry_2 
_ccdc_geom_bond_type 
O1          V617   1.898   1_545  S
O1         C1835   1.265   1_455  A
O2            V9   1.898       .  S
O2         C1228   1.263   1_455  A
O3            V9   1.899       .  S
O3           C13   1.265   1_455  A
O4          V617   1.904   1_545  S
O4           C14   1.266       .  A
O5          V618   1.892       .  S
O5         C1230   1.263       .  A
O6           V10   1.897       .  S
O6         C1229   1.264       .  A
O7          V618   1.896       .  S
O7          C620   1.263   1_545  A
O8           V10   1.898       .  S
O8           C11   1.265       .  A
V9          O609   1.897       .  S
V9          O612   1.904       .  S
V9         V1226   2.085   1_455  T
V10         O613   1.892       .  S
V10         O615   1.897       .  S
V10        V1225   2.085       .  T
C11        O1825   1.265       .  A
C11         C573   1.484       .  S
C12        O1218   1.263       .  A
C12         O615   1.263       .  A
C12         C561   1.467       .  S
C13        O1222   1.264       .  A
C13         C588   1.481       .  S
C14        O1221   1.263   1_455  A
C14         C597   1.482       .  S
O15          V23   1.896       .  S
O15        C1241   1.264       .  A
O16          V23   1.899       .  S
O16        C1242   1.264       .  A
O17          V23   1.901       .  S
O17          C27   1.266       .  A
O18          V23   1.901       .  S
O18          C28   1.265       .  A
O19          V24   1.895       .  S
O19        C1244   1.264   1_455  A
O20          V24   1.894       .  S
O20        C1243   1.263       .  A
O21          V24   1.896       .  S
O21          C26   1.265   1_455  A
O22          V24   1.899       .  S
O22          C25   1.264       .  A
V23        V1240   2.086       .  T
V24        V1239   2.086   1_455  T
C25        O1231   1.264   1_455  A
C25         C540   1.476       .  S
C26        O1232   1.264       .  A
C26         C552   1.484       .  S
C27        O1236   1.263       .  A
C27         C600   1.483       .  S
C28        O1235   1.264       .  A
C28         C585   1.481       .  S
O29          V37   1.894       .  S
O29          C39   1.264       .  A
O30         V645   1.897       .  S
O30          C40   1.264       .  A
O31          V37   1.899       .  S
O31         C649   1.265       .  A
O32         V645   1.900       .  S
O32          C42   1.264       .  A
O33         V646   1.896       .  S
O33         C650   1.263       .  A
O34          V38   1.898       .  S
O34          C41   1.264       .  A
O35          V38   1.897       .  S
O35          C40   1.265       .  A
O36         V646   1.900       .  S
O36          C39   1.265       .  A
V37         O638   1.898       .  S
V37         O640   1.899       .  S
V37         V646   2.085       .  T
V38         O641   1.896       .  S
V38         O644   1.901   1_545  S
V38         V645   2.085       .  T
C39         C513   1.483       .  S
C40         C525   1.481       .  S
C41         O639   1.266       .  A
C41         C501   1.486       .  S
C42         O641   1.263       .  A
C42         C489   1.469       .  S
O43          V51   1.898       .  S
O43          C53   1.264       .  A
O44          V51   1.897       .  S
O44          C54   1.264       .  A
O45          V51   1.899       .  S
O45          C55   1.265       .  A
O46          V51   1.897       .  S
O46          C56   1.264       .  A
O47          V52   1.899       .  S
O47          C56   1.265       .  A
O48          V52   1.893       .  S
O48          C55   1.263       .  A
O49          V52   1.899       .  S
O49          C54   1.265       .  A
O50          V52   1.898       .  S
O50          C53   1.264       .  A
V51          V52   2.085       .  T
C53         C465   1.474       .  S
C54         C480   1.484       .  S
C55         C528   1.480       .  S
C56         C516   1.484       .  S
O57         V673   1.899       .  S
O57        C1891   1.264   1_565  A
O58          V65   1.898       .  S
O58        C1284   1.264       .  A
O59          V65   1.899       .  S
O59          C69   1.265       .  A
O60         V673   1.901   1_545  S
O60          C70   1.265       .  A
O61         V674   1.893       .  S
O61        C1286   1.264       .  A
O62          V66   1.896       .  S
O62        C1285   1.264       .  A
O63         V674   1.899   1_565  S
O63         C676   1.265       .  A
O64          V66   1.899       .  S
O64          C67   1.264       .  A
V65         O665   1.899       .  S
V65         O668   1.901       .  S
V65        V1282   2.085   1_455  T
V66         O669   1.893       .  S
V66         O671   1.899       .  S
V66        V1281   2.085       .  T
C67        O1881   1.264       .  A
C67        C1040   1.478       .  S
C68        O1274   1.264       .  A
C68         O671   1.265       .  A
C68         C576   1.485       .  S
C69        O1278   1.264   1_455  A
C69         C444   1.483       .  S
C70        O1277   1.264   1_455  A
C70         C453   1.480       .  S
O71          V79   1.897       .  S
O71        C1297   1.265       .  A
O72          V79   1.898       .  S
O72        C1298   1.263       .  A
O73          V79   1.901       .  S
O73          C83   1.266       .  A
O74          V79   1.899       .  S
O74          C84   1.265       .  A
O75          V80   1.897       .  S
O75        C1300   1.264       .  A
O76          V80   1.894       .  S
O76        C1299   1.263       .  A
O77          V80   1.900       .  S
O77          C82   1.264       .  A
O78          V80   1.898       .  S
O78          C81   1.265       .  A
V79        V1296   2.085       .  T
V80        V1295   2.085   1_455  T
C81        O1287   1.265   1_455  A
C81         C549   1.484       .  S
C82        O1288   1.263   1_455  A
C82         C420   1.470       .  S
C83        O1292   1.263       .  A
C83         C456   1.482       .  S
C84        O1291   1.264       .  A
C84         C441   1.482       .  S
O85          V93   1.900       .  S
O85          C95   1.264       .  A
O86         V701   1.895       .  S
O86          C96   1.263       .  A
O87          V93   1.898       .  S
O87         C705   1.264       .  A
O88         V701   1.897       .  S
O88          C98   1.264       .  A
O89         V702   1.900       .  S
O89         C706   1.265       .  A
O90          V94   1.903   1_565  S
O90          C97   1.265       .  A
O91          V94   1.902       .  S
O91          C96   1.265       .  A
O92         V702   1.898       .  S
O92          C95   1.265       .  A
V93         O694   1.897       .  S
V93         O696   1.899       .  S
V93         V702   2.086       .  T
V94         O697   1.902       .  S
V94         O700   1.897   1_545  S
V94         V701   2.086       .  T
C95         C396   1.484       .  S
C96         C405   1.479       .  S
C97         O695   1.264   1_565  A
C97         C989   1.476       .  S
C98         O697   1.266       .  A
C98         C504   1.486       .  S
O99         V107   1.895       .  S
O99         C109   1.264       .  A
O100        V107   1.895       .  S
O100        C110   1.262       .  A
O101        V107   1.901       .  S
O101        C111   1.266       .  A
O102        V107   1.904       .  S
O102        C112   1.266       .  A
O103        V108   1.893       .  S
O103        C112   1.263       .  A
O104        V108   1.896       .  S
O104        C111   1.263       .  A
O105        V108   1.900       .  S
O105        C110   1.264       .  A
O106        V108   1.901       .  S
O106        C109   1.265       .  A
V107        V108   2.087       .  T
C109        C477   1.484       .  S
C110        C372   1.464       .  S
C111        C408   1.479       .  S
C112        C393   1.484       .  S
O113       V1337   1.901       .  S
O113       C1947   1.265       .  A
O114        V121   1.897       .  S
O114        C732   1.264   1_545  A
O115        V121   1.897       .  S
O115        C125   1.264   1_545  A
O116       V1337   1.898   1_455  S
O116        C126   1.264       .  A
O117       V1338   1.900   1_455  S
O117        C734   1.265       .  A
O118        V122   1.902       .  S
O118        C733   1.265       .  A
O119       V1338   1.897   1_455  S
O119       C1340   1.264   1_455  A
O120        V122   1.895       .  S
O120        C123   1.264       .  A
V121       O1329   1.901       .  S
V121       O1332   1.898       .  S
V121        V730   2.085   1_545  T
V122       O1333   1.900       .  S
V122       O1335   1.897       .  S
V122        V729   2.085       .  T
C123       O1937   1.265       .  A
C123        C336   1.484       .  S
C124        O722   1.264       .  A
C124       O1335   1.264       .  A
C124        C564   1.475       .  S
C125        O726   1.266       .  A
C125        C348   1.484       .  S
C126        O725   1.265   1_545  A
C126        C360   1.483       .  S
O127       V1351   1.900       .  S
O127       C1353   1.265       .  A
O128        V135   1.901   1_455  S
O128        C138   1.263   1_455  A
O129        V135   1.898   1_455  S
O129        C139   1.265       .  A
O130       V1351   1.903       .  S
O130        C140   1.266       .  A
O131       V1352   1.893       .  S
O131        C140   1.263       .  A
O132        V136   1.897   1_455  S
O132        C139   1.265       .  A
O133       V1352   1.897       .  S
O133       C1354   1.263       .  A
O134        V136   1.899   1_455  S
O134        C137   1.265   1_455  A
V135       O1343   1.900       .  S
V135       O1346   1.903       .  S
V135        V136   2.086       .  T
V136       O1347   1.893       .  S
V136       O1349   1.897       .  S
C137       O1343   1.265       .  A
C137        C300   1.483       .  S
C138       O1349   1.263       .  A
C138        C537   1.468       .  S
C139        C324   1.484       .  S
C140        C309   1.484       .  S
O141        V149   1.896       .  S
O141        C759   1.264       .  A
O142        V149   1.899       .  S
O142        C760   1.265       .  A
O143        V149   1.897       .  S
O143        C153   1.264       .  A
O144        V149   1.899       .  S
O144        C154   1.264       .  A
O145        V150   1.895       .  S
O145        C762   1.263       .  A
O146        V150   1.898       .  S
O146        C761   1.265       .  A
O147        V150   1.900       .  S
O147        C152   1.265       .  A
O148        V150   1.901       .  S
O148        C151   1.266       .  A
V149        V758   2.085       .  T
V150        V757   2.085   1_545  T
C151        O749   1.264   1_545  A
C151        C357   1.482       .  S
C152        O750   1.265   1_545  A
C152        C345   1.483       .  S
C153        O754   1.265       .  A
C153        C288   1.484       .  S
C154        O753   1.263       .  A
C154        C492   1.473       .  S
O155        V163   1.896       .  S
O155        C165   1.264       .  A
O156        V163   1.893       .  S
O156        C166   1.263       .  A
O157        V163   1.902       .  S
O157        C167   1.266       .  A
O158        V163   1.903       .  S
O158        C168   1.265       .  A
O159        V164   1.894       .  S
O159        C168   1.263       .  A
O160        V164   1.897       .  S
O160        C167   1.264       .  A
O161        V164   1.903       .  S
O161        C166   1.267       .  A
O162        V164   1.900       .  S
O162        C165   1.265       .  A
V163        V164   2.084       .  T
C165        C321   1.484       .  S
C166        C312   1.484       .  S
C167        C273   1.485       .  S
C168        C468   1.471       .  S
O169       V1393   1.902       .  S
O169       C2003   1.264       .  A
O170        V177   1.899   1_655  S
O170        C788   1.265       .  A
O171        V177   1.897       .  S
O171        C181   1.264       .  A
O172       V1393   1.901       .  S
O172        C182   1.265       .  A
O173       V1394   1.897       .  S
O173        C790   1.264   1_545  A
O174        V178   1.901       .  S
O174        C789   1.266   1_545  A
O175       V1394   1.899       .  S
O175       C1396   1.265   1_545  A
O176        V178   1.897   1_655  S
O176        C179   1.263   1_645  A
V177       O1385   1.902       .  S
V177       O1388   1.901   1_455  S
V177        V786   2.085       .  T
V178       O1389   1.897   1_455  S
V178       O1391   1.899       .  S
V178        V785   2.085   1_545  T
C179       O1993   1.264       .  A
C179        C429   1.470       .  S
C180        O778   1.265   1_455  A
C180       O1391   1.265   1_565  A
C180        C333   1.484       .  S
C181        O782   1.266       .  A
C181        C261   1.484       .  S
C182        O781   1.264       .  A
C182        C252   1.482       .  S
O183       V1407   1.901       .  S
O183       C1409   1.265       .  A
O184        V191   1.898       .  S
O184        C194   1.264       .  A
O185        V191   1.904       .  S
O185        C195   1.266       .  A
O186       V1407   1.902       .  S
O186        C196   1.266       .  A
O187       V1408   1.898       .  S
O187        C196   1.264       .  A
O188        V192   1.895       .  S
O188        C195   1.264       .  A
O189       V1408   1.900       .  S
O189       C1410   1.265       .  A
O190        V192   1.900       .  S
O190        C193   1.265       .  A
V191       O1399   1.901       .  S
V191       O1402   1.902       .  S
V191        V192   2.086       .  T
V192       O1403   1.897       .  S
V192       O1405   1.900       .  S
C193       O1399   1.265       .  A
C193       C1513   1.485       .  S
C194       O1405   1.265       .  A
C194       C1633   1.477       .  S
C195        C225   1.484       .  S
C196        C240   1.482       .  S
O197        V205   1.899       .  S
O197        C815   1.265       .  A
O198        V205   1.896       .  S
O198        C816   1.264       .  A
O199        V205   1.902       .  S
O199        C209   1.264       .  A
O200        V205   1.899       .  S
O200        C210   1.265       .  A
O201        V206   1.898       .  S
O201        C818   1.264       .  A
O202        V206   1.896       .  S
O202        C817   1.263   1_545  A
O203        V206   1.901       .  S
O203        C208   1.266   1_545  A
O204        V206   1.898       .  S
O204        C207   1.264   1_545  A
V205        V814   2.085       .  T
V206        V813   2.085   1_545  T
C207        O805   1.265       .  A
C207        C264   1.483       .  S
C208        O806   1.264       .  A
C208        C249   1.483       .  S
C209        O810   1.263       .  A
C209        C384   1.471       .  S
C210        O809   1.264       .  A
C210        C285   1.484       .  S
O211        V219   1.896       .  S
O211        C221   1.264       .  A
O212        V219   1.894       .  S
O212        C222   1.263       .  A
O213        V219   1.896       .  S
O213        C223   1.264       .  A
O214        V219   1.898       .  S
O214        C224   1.265       .  A
O215        V220   1.901       .  S
O215        C224   1.265       .  A
O216        V220   1.902       .  S
O216        C223   1.266       .  A
O217        V220   1.903       .  S
O217        C222   1.266       .  A
O218        V220   1.902       .  S
O218        C221   1.266       .  A
V219        V220   2.085       .  T
C221        C276   1.485       .  S
C222        C369   1.482       .  S
C223        C237   1.482       .  S
C224        C228   1.484       .  S
C225        C226   1.406       .  A
C225        C230   1.411       .  A
C226        C227   1.400       .  A
C226        H231   1.083       .  S
C227        C228   1.411       .  A
C227        O232   1.372       .  S
C228        C229   1.406       .  A
C229        C230   1.400       .  A
C229        H233   1.083       .  S
C230        O234   1.371       .  S
O232        H236   0.992       .  S
O234        H235   0.992       .  S
C237        C238   1.404       .  A
C237        C242   1.412       .  A
C238        C239   1.400       .  A
C238        H243   1.083       .  S
C239        C240   1.411       .  A
C239        O244   1.372       .  S
C240        C241   1.404       .  A
C241        C242   1.400       .  A
C241        H245   1.084       .  S
C242        O246   1.372       .  S
O244        H248   0.991       .  S
O246        H247   0.991       .  S
C249        C250   1.405   1_565  A
C249        C862   1.412       .  A
C250        C251   1.400       .  A
C250        H255   1.083       .  S
C251        C860   1.411   1_545  A
C251        O256   1.372       .  S
C252        C253   1.404       .  A
C252        C859   1.411       .  A
C253        C254   1.400       .  A
C253        H257   1.084       .  S
C254        C857   1.412       .  A
C254        O258   1.372       .  S
O256        H260   0.992       .  S
O258        H259   0.992       .  S
C261        C266   1.412       .  A
C261        C870   1.405       .  A
C262        C263   1.399       .  A
C262        C869   1.405   1_545  A
C262        H267   1.083       .  S
C263        C264   1.411   1_545  A
C263        O268   1.372       .  S
C264        C873   1.405       .  A
C265        C266   1.399       .  A
C265        C872   1.405       .  A
C265        H269   1.083       .  S
C266        O270   1.372       .  S
O268        H272   0.992       .  S
O270        H271   0.992       .  S
C273        C274   1.404       .  A
C273        C278   1.413       .  A
C274        C275   1.399       .  A
C274        H279   1.083       .  S
C275        C276   1.412       .  A
C275        O280   1.371       .  S
C276        C277   1.405       .  A
C277        C278   1.401       .  A
C277        H281   1.083       .  S
C278        O282   1.372       .  S
O280        H284   0.991       .  S
O282        H283   0.991       .  S
C285        C286   1.405       .  A
C285        C898   1.412       .  A
C286        C287   1.399       .  A
C286        H291   1.083       .  S
C287        C288   1.412       .  A
C287        O292   1.372       .  S
C288        C897   1.406       .  A
C289        C290   1.400       .  A
C289        C896   1.406   1_545  A
C289        H293   1.083       .  S
C290        C893   1.412       .  A
C290        O294   1.372       .  S
O292        H296   0.991       .  S
O294        H295   0.991       .  S
C297       C1409   1.485   1_655  S
C297        C298   1.406   1_655  A
C297       C1518   1.412       .  A
C298        C299   1.401       .  A
C298        H303   1.083       .  S
C299        C300   1.411   1_455  A
C299        O304   1.372       .  S
C300       C1517   1.405       .  A
C301        C302   1.400       .  A
C301       C1516   1.405       .  A
C301        H305   1.083       .  S
C302       C1513   1.412       .  A
C302        O306   1.372       .  S
O304        H308   0.991       .  S
O306        H307   0.991       .  S
C309        C310   1.404       .  A
C309        C314   1.413       .  A
C310        C311   1.399       .  A
C310        H315   1.083       .  S
C311        C312   1.413       .  A
C311        O316   1.372       .  S
C312        C313   1.404       .  A
C313        C314   1.399       .  A
C313        H317   1.083       .  S
C314        O318   1.372       .  S
O316        H320   0.991       .  S
O318        H319   0.991       .  S
C321        C322   1.406       .  A
C321        C326   1.411       .  A
C322        C323   1.399       .  A
C322        H327   1.083       .  S
C323        C324   1.412       .  A
C323        O328   1.372       .  S
C324        C325   1.406       .  A
C325        C326   1.399       .  A
C325        H329   1.083       .  S
C326        O330   1.371       .  S
O328        H332   0.992       .  S
O330        H331   0.992       .  S
C333       C1550   1.406   1_465  A
C333        C946   1.411       .  A
C334        C335   1.401       .  A
C334       C1549   1.406   1_545  A
C334        H339   1.083       .  S
C335        C944   1.411       .  A
C335        O340   1.372       .  S
C336        C943   1.411       .  A
C336       C1553   1.405       .  A
C337        C338   1.399       .  A
C337       C1552   1.405   1_455  A
C337        H341   1.083       .  S
C338        C941   1.411       .  A
C338        O342   1.372       .  S
O340        H344   0.992       .  S
O342        H343   0.992   1_455  S
C345        C350   1.411       .  A
C345        C954   1.405   1_545  A
C346        C347   1.400       .  A
C346        C953   1.405       .  A
C346        H351   1.083       .  S
C347        C956   1.411       .  A
C347        O352   1.371       .  S
C348        C349   1.406   1_565  A
C348        C955   1.411       .  A
C349        C350   1.401       .  A
C349        H353   1.083       .  S
C350        O354   1.372       .  S
O352        H356   0.991       .  S
O354        H355   0.991       .  S
C357        C358   1.404       .  A
C357        C970   1.412   1_545  A
C358        C359   1.399       .  A
C358        H363   1.083       .  S
C359        C360   1.412       .  A
C359        O364   1.372       .  S
C360        C969   1.405   1_545  A
C361        C362   1.400       .  A
C361        C968   1.405       .  A
C361        H365   1.083       .  S
C362        C965   1.412       .  A
C362        O366   1.372       .  S
O364        H368   0.991       .  S
O366        H367   0.992       .  S
C369        C370   1.407       .  A
C369        C374   1.414       .  A
C370        C371   1.400       .  A
C370        H375   1.083       .  S
C371        C372   1.404       .  A
C371        O376   1.372       .  S
C372        C373   1.398       .  A
C373        C374   1.398       .  A
C373        H377   1.084       .  S
C374        O378   1.372       .  S
O376        H380   0.991       .  S
O378        H379   0.991       .  S
C381        C705   1.476       .  S
C381        C386   1.410       .  A
C381        C990   1.404       .  A
C382        C383   1.398       .  A
C382        C989   1.404   1_545  A
C382        H387   1.084       .  S
C383        C992   1.407   1_545  A
C383        O388   1.372       .  S
C384        C385   1.402       .  A
C384        C991   1.407       .  A
C385        C386   1.402       .  A
C385        H389   1.084       .  S
C386        O390   1.372       .  S
O388        H392   0.992       .  S
O390        H391   0.992       .  S
C393        C394   1.405       .  A
C393        C398   1.413       .  A
C394        C395   1.401       .  A
C394        H399   1.083       .  S
C395        C396   1.412       .  A
C395        O400   1.371       .  S
C396        C397   1.404       .  A
C397        C398   1.398       .  A
C397        H401   1.083       .  S
C398        O402   1.372       .  S
O400        H404   0.991       .  S
O402        H403   0.991       .  S
C405        C406   1.404       .  A
C405        C410   1.411       .  A
C406        C407   1.400       .  A
C406        H411   1.084       .  S
C407        C408   1.411       .  A
C407        O412   1.372       .  S
C408        C409   1.404       .  A
C409        C410   1.399       .  A
C409        H413   1.084       .  S
C410        O414   1.372       .  S
O412        H416   0.991       .  S
O414        H415   0.992       .  S
C417       C1410   1.477       .  S
C417        C418   1.405       .  A
C417       C1638   1.410   1_455  A
C418        C419   1.400       .  A
C418        H423   1.084       .  S
C419        C420   1.406       .  A
C419        O424   1.372       .  S
C420       C1637   1.401   1_455  A
C421        C422   1.400       .  A
C421       C1636   1.401       .  A
C421        H425   1.084       .  S
C422       C1633   1.410       .  A
C422        O426   1.372       .  S
O424        H428   0.992       .  S
O426        H427   0.992       .  S
C429       C1038   1.401       .  A
C429       C1650   1.406   1_465  A
C430        C431   1.400       .  A
C430       C1037   1.401       .  A
C430        H435   1.084       .  S
C431       C2256   1.411       .  A
C431        O436   1.372       .  S
C432        C675   1.478   1_565  S
C432        C433   1.405   1_565  A
C432       C2255   1.412       .  A
C433        C434   1.400       .  A
C433        H437   1.084       .  S
C434       C1645   1.406   1_545  A
C434        O438   1.372       .  S
O436        H440   0.991       .  S
O438        H439   0.991       .  S
C441        C442   1.405       .  A
C441       C1662   1.411       .  A
C442        C443   1.400       .  A
C442        H447   1.083       .  S
C443       C1660   1.412       .  A
C443        O448   1.372       .  S
C444        C445   1.405       .  A
C444       C1659   1.412   1_455  A
C445        C446   1.399       .  A
C445        H449   1.083       .  S
C446       C1657   1.411       .  A
C446        O450   1.372       .  S
O448        H452   0.992       .  S
O450        H451   0.991       .  S
C453        C458   1.410       .  A
C453       C1670   1.405   1_455  A
C454        C455   1.398       .  A
C454       C1669   1.405       .  A
C454        H459   1.083       .  S
C455        C456   1.410       .  A
C455        O460   1.371       .  S
C456       C1673   1.407       .  A
C457        C458   1.400       .  A
C457       C1672   1.407       .  A
C457        H461   1.083       .  S
C458        O462   1.372       .  S
O460        H464   0.991       .  S
O462        H463   0.991       .  S
C465        C466   1.405       .  A
C465        C470   1.408       .  A
C466        C467   1.401       .  A
C466        H471   1.084       .  S
C467        C468   1.407       .  A
C467        O472   1.372       .  S
C468        C469   1.403       .  A
C469        C470   1.398       .  A
C469        H473   1.084       .  S
C470        O474   1.372       .  S
O472        H476   0.991       .  S
O474        H475   0.991       .  S
C477        C478   1.405       .  A
C477        C482   1.412       .  A
C478        C479   1.398   1_556  A
C478        H483   1.083       .  S
C479        C480   1.411       .  A
C479        O484   1.372       .  S
C480        C481   1.406       .  A
C481        C482   1.400   1_554  A
C481        H485   1.083       .  S
C482        O486   1.371       .  S
O484        H488   0.992       .  S
O486        H487   0.992       .  S
C489        C490   1.402       .  A
C489       C1102   1.407   1_545  A
C490        C491   1.399       .  A
C490        H495   1.084       .  S
C491       C1100   1.409       .  A
C491        O496   1.372       .  S
C492        C493   1.404       .  A
C492       C1099   1.409       .  A
C493        C494   1.399       .  A
C493        H497   1.084       .  S
C494       C1097   1.407       .  A
C494        O498   1.372       .  S
O496        H500   0.991       .  S
O498        H499   0.991       .  S
C501        C506   1.413       .  A
C501       C1110   1.405       .  A
C502        C503   1.399   1_554  A
C502       C1109   1.405       .  A
C502        H507   1.083       .  S
C503       C1112   1.412       .  A
C503        O508   1.371       .  S
C504        C505   1.406       .  A
C504       C1111   1.412       .  A
C505        C506   1.401   1_556  A
C505        H509   1.083   1_545  S
C506        O510   1.372   1_545  S
O508        H512   0.992       .  S
O510        H511   0.992       .  S
C513        C514   1.405       .  A
C513        C518   1.411       .  A
C514        C515   1.398       .  A
C514        H519   1.083       .  S
C515        C516   1.411       .  A
C515        O520   1.372       .  S
C516        C517   1.406       .  A
C517        C518   1.400       .  A
C517        H521   1.083       .  S
C518        O522   1.372       .  S
O520        H524   0.992       .  S
O522        H523   0.992       .  S
C525        C526   1.404       .  A
C525        C530   1.412       .  A
C526        C527   1.397       .  A
C526        H531   1.083       .  S
C527        C528   1.411       .  A
C527        O532   1.372       .  S
C528        C529   1.404       .  A
C529        C530   1.399       .  A
C529        H533   1.083       .  S
C530        O534   1.372       .  S
O532        H536   0.991       .  S
O534        H535   0.990       .  S
C537        C538   1.401   1_655  A
C537       C1758   1.405       .  A
C538        C539   1.401       .  A
C538        H543   1.084       .  S
C539        C540   1.411       .  A
C539        O544   1.372       .  S
C540       C1757   1.404   1_455  A
C541        C542   1.398       .  A
C541       C1756   1.404       .  A
C541        H545   1.084       .  S
C542       C1753   1.405       .  A
C542        O546   1.372       .  S
O544        H548   0.992       .  S
O546        H547   0.991       .  S
C549        C554   1.411       .  A
C549       C1766   1.406   1_455  A
C550        C551   1.400   1_556  A
C550       C1765   1.406       .  A
C550        H555   1.083       .  S
C551       C1768   1.412       .  A
C551        O556   1.372       .  S
C552        C553   1.405   1_655  A
C552       C1767   1.412       .  A
C553        C554   1.398   1_554  A
C553        H557   1.083       .  S
C554        O558   1.371       .  S
O556        H560   0.992       .  S
O558        H559   0.992       .  S
C561       C1778   1.402       .  A
C561       C1174   1.405       .  A
C562        C563   1.400       .  A
C562       C1777   1.402   1_455  A
C562        H567   1.084       .  S
C563       C1780   1.411   1_455  A
C563        O568   1.372       .  S
C564       C1779   1.411       .  A
C564       C1173   1.404       .  A
C565        C566   1.398       .  A
C565       C1172   1.404   1_545  A
C565        H569   1.084       .  S
C566       C1169   1.405   1_545  A
C566        O570   1.372       .  S
O568        H572   0.991       .  S
O570        H571   0.991       .  S
C573        C578   1.411       .  A
C573       C2398   1.406       .  A
C574        C575   1.400   1_554  A
C574       C2397   1.406       .  A
C574        H579   1.083       .  S
C575       C2400   1.412       .  A
C575        O580   1.372       .  S
C576        C577   1.405       .  A
C576       C2399   1.412       .  A
C577        C578   1.399   1_556  A
C577        H581   1.083       .  S
C578        O582   1.371       .  S
O580        H584   0.992   1_545  S
O582        H583   0.992       .  S
C585        C586   1.405       .  A
C585       C1806   1.411       .  A
C586        C587   1.400       .  A
C586        H591   1.083       .  S
C587       C1804   1.412       .  A
C587        O592   1.372       .  S
C588        C589   1.404   1_655  A
C588       C1803   1.412       .  A
C589        C590   1.397       .  A
C589        H593   1.083       .  S
C590       C1801   1.411   1_455  A
C590        O594   1.372       .  S
O592        H596   0.992       .  S
O594        H595   0.992       .  S
C597        C598   1.404       .  A
C597       C1818   1.412   1_455  A
C598        C599   1.400       .  A
C598        H603   1.083       .  S
C599       C1816   1.413       .  A
C599        O604   1.372       .  S
C600        C601   1.404       .  A
C600       C1815   1.413       .  A
C601        C602   1.398       .  A
C601        H605   1.083       .  S
C602       C1813   1.412       .  A
C602        O606   1.372       .  S
O604        H608   0.987       .  S
O606        H607   0.991       .  S
O609       C1227   1.265   1_455  A
O610        V617   1.898       .  S
O610       C1836   1.263   1_455  A
O611        V617   1.898       .  S
O611        C621   1.265   1_455  A
O612        C622   1.266       .  A
O613       C1838   1.263       .  A
O614        V618   1.896   1_565  S
O614       C1837   1.264       .  A
O616        V618   1.898   1_565  S
O616        C619   1.265   1_565  A
V617       V1834   2.085   1_465  T
V618       V1833   2.085   1_545  T
C619       O1217   1.265       .  A
C619       C1181   1.484       .  S
C620       O1826   1.263       .  A
C620       C1169   1.467       .  S
C621       O1830   1.264       .  A
C621       C1196   1.481       .  S
C622       O1829   1.263   1_455  A
C622       C1205   1.483       .  S
O623        V631   1.896       .  S
O623       C1849   1.264       .  A
O624        V631   1.899       .  S
O624       C1850   1.264       .  A
O625        V631   1.901       .  S
O625        C635   1.266       .  A
O626        V631   1.901       .  S
O626        C636   1.265       .  A
O627        V632   1.894       .  S
O627       C1852   1.264   1_455  A
O628        V632   1.894       .  S
O628       C1851   1.263       .  A
O629        V632   1.896       .  S
O629        C634   1.265   1_455  A
O630        V632   1.898       .  S
O630        C633   1.264       .  A
V631       V1848   2.086       .  T
V632       V1847   2.086   1_455  T
C633       O1839   1.264   1_455  A
C633       C1148   1.476       .  S
C634       O1840   1.264       .  A
C634       C1160   1.484       .  S
C635       O1844   1.263       .  A
C635       C1208   1.483       .  S
C636       O1843   1.264       .  A
C636       C1193   1.481       .  S
O637        V645   1.893   1_565  S
O637        C647   1.264       .  A
O638        C648   1.264       .  A
O639        V645   1.900       .  S
O640        C650   1.264       .  A
O642        V646   1.898       .  S
O642        C649   1.264       .  A
O643        V646   1.896       .  S
O643        C648   1.265       .  A
O644        C647   1.265       .  A
C647       C1121   1.483       .  S
C648       C1133   1.481       .  S
C649       C1109   1.485       .  S
C650       C1097   1.469       .  S
O651        V659   1.900       .  S
O651        C661   1.264       .  A
O652        V659   1.898       .  S
O652        C662   1.265       .  A
O653        V659   1.899       .  S
O653        C663   1.265       .  A
O654        V659   1.897       .  S
O654        C664   1.264       .  A
O655        V660   1.898       .  S
O655        C664   1.265       .  A
O656        V660   1.893       .  S
O656        C663   1.263       .  A
O657        V660   1.898       .  S
O657        C662   1.265       .  A
O658        V660   1.897       .  S
O658        C661   1.264       .  A
V659        V660   2.085       .  T
C661       C1073   1.474       .  S
C662       C1088   1.484       .  S
C663       C1136   1.481       .  S
C664       C1124   1.483       .  S
O665       C1283   1.264       .  A
O666        V673   1.898   1_545  S
O666       C1892   1.264   1_545  A
O667        V673   1.898       .  S
O667        C677   1.265       .  A
O668        C678   1.265       .  A
O669       C1894   1.264       .  A
O670        V674   1.897   1_565  S
O670       C1893   1.264       .  A
O672        V674   1.899       .  S
O672        C675   1.264       .  A
V673       V1890   2.085   1_465  T
V674       V1889   2.085   1_545  T
C675       O1273   1.264   1_545  A
C676       O1882   1.264   1_565  A
C676       C1184   1.485       .  S
C677       O1886   1.264   1_455  A
C677       C1052   1.483       .  S
C678       O1885   1.264   1_455  A
C678       C1061   1.480       .  S
O679        V687   1.898       .  S
O679       C1905   1.265       .  A
O680        V687   1.898       .  S
O680       C1906   1.263       .  A
O681        V687   1.900       .  S
O681        C691   1.265       .  A
O682        V687   1.899       .  S
O682        C692   1.265       .  A
O683        V688   1.897       .  S
O683       C1908   1.264       .  A
O684        V688   1.894       .  S
O684       C1907   1.264       .  A
O685        V688   1.900       .  S
O685        C690   1.264       .  A
O686        V688   1.897       .  S
O686        C689   1.264       .  A
V687       V1904   2.085       .  T
V688       V1903   2.085   1_455  T
C689       O1895   1.265   1_455  A
C689       C1157   1.484       .  S
C690       O1896   1.263   1_455  A
C690       C1028   1.470       .  S
C691       O1900   1.264       .  A
C691       C1064   1.482       .  S
C692       O1899   1.264       .  A
C692       C1049   1.482       .  S
O693        V701   1.898   1_565  S
O693        C703   1.264       .  A
O694        C704   1.264       .  A
O695        V701   1.896       .  S
O696        C706   1.265       .  A
O698        V702   1.901       .  S
O698        C705   1.264       .  A
O699        V702   1.902       .  S
O699        C704   1.266       .  A
O700        C703   1.265       .  A
C703       C1004   1.482       .  S
C704       C1013   1.480       .  S
C706       C1112   1.486       .  S
O707        V715   1.897       .  S
O707        C717   1.265       .  A
O708        V715   1.897       .  S
O708        C718   1.262       .  A
O709        V715   1.905       .  S
O709        C719   1.266       .  A
O710        V715   1.900       .  S
O710        C720   1.265       .  A
O711        V716   1.896       .  S
O711        C720   1.264       .  A
O712        V716   1.895       .  S
O712        C719   1.263       .  A
O713        V716   1.900       .  S
O713        C718   1.264       .  A
O714        V716   1.900       .  S
O714        C717   1.265       .  A
V715        V716   2.084       .  T
C717       C1085   1.484       .  S
C718        C980   1.465       .  S
C719       C1016   1.481       .  S
C720       C1001   1.483       .  S
O721       V1945   1.901       .  S
O721       C1339   1.265       .  A
O722        V729   1.897       .  S
O723        V729   1.897       .  S
O723        C733   1.264       .  A
O724       V1945   1.898   1_455  S
O724        C734   1.264       .  A
O725       V1946   1.900   1_455  S
O726        V730   1.902       .  S
O727       V1946   1.897   1_455  S
O727       C1948   1.263   1_455  A
O728        V730   1.895       .  S
O728        C731   1.264   1_565  A
V729       O1937   1.901       .  S
V729       O1940   1.898       .  S
V730       O1941   1.900       .  S
V730       O1943   1.897       .  S
C731       O1329   1.265       .  A
C731        C944   1.484       .  S
C732       O1943   1.263       .  A
C732       C1172   1.474       .  S
C733        C956   1.484       .  S
C734        C968   1.483       .  S
O735       V1959   1.900       .  S
O735       C1961   1.265       .  A
O736        V743   1.900   1_455  S
O736        C746   1.263   1_455  A
O737        V743   1.897   1_455  S
O737        C747   1.264       .  A
O738       V1959   1.902       .  S
O738        C748   1.266       .  A
O739       V1960   1.894       .  S
O739        C748   1.263       .  A
O740        V744   1.899   1_455  S
O740        C747   1.265       .  A
O741       V1960   1.897       .  S
O741       C1962   1.263       .  A
O742        V744   1.899   1_455  S
O742        C745   1.265   1_455  A
V743       O1951   1.900       .  S
V743       O1954   1.902       .  S
V743        V744   2.086       .  T
V744       O1955   1.894       .  S
V744       O1957   1.897       .  S
C745       O1951   1.265       .  A
C745        C908   1.483       .  S
C746       O1957   1.263       .  A
C746       C1145   1.467       .  S
C747        C932   1.484       .  S
C748        C917   1.484       .  S
O749        V757   1.896       .  S
O750        V757   1.899       .  S
O751        V757   1.897       .  S
O751        C761   1.264   1_565  A
O752        V757   1.900       .  S
O752        C762   1.264   1_565  A
O753        V758   1.895       .  S
O754        V758   1.898       .  S
O755        V758   1.900       .  S
O755        C760   1.265       .  A
O756        V758   1.901       .  S
O756        C759   1.266       .  A
C759        C965   1.482       .  S
C760        C953   1.483       .  S
C761        C896   1.484   1_545  S
C762       C1100   1.473       .  S
O763        V771   1.897       .  S
O763        C773   1.265       .  A
O764        V771   1.894       .  S
O764        C774   1.263       .  A
O765        V771   1.905       .  S
O765        C775   1.267       .  A
O766        V771   1.904       .  S
O766        C776   1.265       .  A
O767        V772   1.893       .  S
O767        C776   1.262       .  A
O768        V772   1.894       .  S
O768        C775   1.263       .  A
O769        V772   1.902       .  S
O769        C774   1.266       .  A
O770        V772   1.899       .  S
O770        C773   1.265       .  A
V771        V772   2.084       .  T
C773        C929   1.483       .  S
C774        C920   1.484       .  S
C775        C881   1.485       .  S
C776       C1076   1.471       .  S
O777       V2001   1.902       .  S
O777       C1395   1.264       .  A
O778        V785   1.899   1_655  S
O779        V785   1.897       .  S
O779        C789   1.264       .  A
O780       V2001   1.901       .  S
O780        C790   1.265       .  A
O781       V2002   1.897       .  S
O782        V786   1.900       .  S
O783       V2002   1.899       .  S
O783       C2004   1.265       .  A
O784        V786   1.897   1_655  S
O784        C787   1.263   1_655  A
V785       O1993   1.902       .  S
V785       O1996   1.901   1_455  S
V786       O1997   1.897   1_455  S
V786       O1999   1.899       .  S
C787       O1385   1.264       .  A
C787       C1037   1.470       .  S
C788       O1999   1.265   1_655  A
C788        C941   1.484   1_655  S
C789        C869   1.484       .  S
C790        C860   1.482       .  S
O791       V2015   1.901       .  S
O791       C2017   1.265   1_455  A
O792        V799   1.898       .  S
O792        C802   1.264       .  A
O793        V799   1.905       .  S
O793        C803   1.267       .  A
O794       V2015   1.903       .  S
O794        C804   1.266       .  A
O795       V2016   1.896       .  S
O795        C804   1.264       .  A
O796        V800   1.893       .  S
O796        C803   1.263       .  A
O797       V2016   1.900       .  S
O797       C2018   1.265       .  A
O798        V800   1.900       .  S
O798        C801   1.265       .  A
V799       O2007   1.901       .  S
V799       O2010   1.903       .  S
V799        V800   2.086       .  T
V800       O2011   1.896       .  S
V800       O2013   1.900       .  S
C801       O2007   1.265       .  A
C801       C2121   1.485       .  S
C802       O2013   1.265       .  A
C802       C2241   1.477       .  S
C803        C833   1.485       .  S
C804        C848   1.482       .  S
O805        V813   1.900       .  S
O806        V813   1.896       .  S
O807        V813   1.901       .  S
O807        C817   1.264       .  A
O808        V813   1.898       .  S
O808        C818   1.265   1_565  A
O809        V814   1.898       .  S
O810        V814   1.896       .  S
O811        V814   1.902       .  S
O811        C816   1.266       .  A
O812        V814   1.898       .  S
O812        C815   1.264       .  A
C815        C872   1.483       .  S
C816        C857   1.484       .  S
C817        C992   1.470       .  S
C818        C893   1.484       .  S
O819        V827   1.897       .  S
O819        C829   1.264       .  A
O820        V827   1.895       .  S
O820        C830   1.264       .  A
O821        V827   1.896       .  S
O821        C831   1.264       .  A
O822        V827   1.896       .  S
O822        C832   1.264       .  A
O823        V828   1.903       .  S
O823        C832   1.266       .  A
O824        V828   1.902       .  S
O824        C831   1.266       .  A
O825        V828   1.903       .  S
O825        C830   1.265       .  A
O826        V828   1.901       .  S
O826        C829   1.266       .  A
V827        V828   2.085       .  T
C829        C884   1.484       .  S
C830        C977   1.482       .  S
C831        C845   1.482       .  S
C832        C836   1.485       .  S
C833        C834   1.407       .  A
C833        C838   1.410       .  A
C834        C835   1.400       .  A
C834        H839   1.083       .  S
C835        C836   1.411       .  A
C835        O840   1.372       .  S
C836        C837   1.406       .  A
C837        C838   1.400       .  A
C837        H841   1.083       .  S
C838        O842   1.371       .  S
O840        H844   0.992       .  S
O842        H843   0.992       .  S
C845        C846   1.404       .  A
C845        C850   1.412       .  A
C846        C847   1.400       .  A
C846        H851   1.083       .  S
C847        C848   1.412       .  A
C847        O852   1.372       .  S
C848        C849   1.404       .  A
C849        C850   1.400       .  A
C849        H853   1.084       .  S
C850        O854   1.372       .  S
O852        H856   0.991       .  S
O854        H855   0.991       .  S
C857        C858   1.405       .  A
C858        C859   1.400       .  A
C858        H863   1.083       .  S
C859        O864   1.372       .  S
C860        C861   1.404       .  A
C861        C862   1.400       .  A
C861        H865   1.084       .  S
C862        O866   1.372       .  S
O864        H868   0.992       .  S
O866        H867   0.992       .  S
C869        C874   1.412       .  A
C870        C871   1.399       .  A
C870        H875   1.083       .  S
C871        C872   1.411       .  A
C871        O876   1.372       .  S
C873        C874   1.400       .  A
C873        H877   1.083       .  S
C874        O878   1.372       .  S
O876        H880   0.992       .  S
O878        H879   0.992       .  S
C881        C882   1.405       .  A
C881        C886   1.413       .  A
C882        C883   1.401       .  A
C882        H887   1.083       .  S
C883        C884   1.412       .  A
C883        O888   1.372       .  S
C884        C885   1.404       .  A
C885        C886   1.399       .  A
C885        H889   1.083       .  S
C886        O890   1.372       .  S
O888        H892   0.991       .  S
O890        H891   0.991       .  S
C893        C894   1.405   1_545  A
C894        C895   1.399       .  A
C894        H899   1.083       .  S
C895        C896   1.412       .  A
C895        O900   1.372       .  S
C897        C898   1.400       .  A
C897        H901   1.083       .  S
C898        O902   1.372       .  S
O900        H904   0.991       .  S
O902        H903   0.991       .  S
C905       C2017   1.485       .  S
C905        C906   1.406   1_655  A
C905       C2126   1.412       .  A
C906        C907   1.401       .  A
C906        H911   1.083       .  S
C907        C908   1.411   1_455  A
C907        O912   1.372       .  S
C908       C2125   1.405       .  A
C909       C2124   1.405       .  A
C909        C910   1.400       .  A
C909        H913   1.083       .  S
C910       C2121   1.412       .  A
C910        O914   1.372       .  S
O912        H916   0.991       .  S
O914        H915   0.991       .  S
C917        C918   1.404       .  A
C917        C922   1.412       .  A
C918        C919   1.399       .  A
C918        H923   1.083       .  S
C919        C920   1.413       .  A
C919        O924   1.372       .  S
C920        C921   1.404       .  A
C921        C922   1.399       .  A
C921        H925   1.083       .  S
C922        O926   1.372       .  S
O924        H928   0.991       .  S
O926        H927   0.991       .  S
C929        C930   1.405       .  A
C929        C934   1.411       .  A
C930        C931   1.399       .  A
C930        H935   1.083       .  S
C931        C932   1.412       .  A
C931        O936   1.372       .  S
C932        C933   1.406       .  A
C933        C934   1.399       .  A
C933        H937   1.083       .  S
C934        O938   1.372       .  S
O936        H940   0.992       .  S
O938        H939   0.992       .  S
C941       C2158   1.406   1_455  A
C942       C2157   1.406       .  A
C942        C943   1.401       .  A
C942        H947   1.083       .  S
C943        O948   1.372       .  S
C944       C2161   1.405   1_545  A
C945       C2160   1.405   1_465  A
C945        C946   1.399       .  A
C945        H949   1.083       .  S
C946        O950   1.372       .  S
O948        H952   0.992       .  S
O950        H951   0.992   1_455  S
C953        C958   1.411       .  A
C954        C955   1.400       .  A
C954        H959   1.083       .  S
C955        O960   1.371       .  S
C956        C957   1.406       .  A
C957        C958   1.401       .  A
C957        H961   1.083       .  S
C958        O962   1.372       .  S
O960        H964   0.991       .  S
O962        H963   0.991       .  S
C965        C966   1.404       .  A
C966        C967   1.400       .  A
C966        H971   1.083       .  S
C967        C968   1.412       .  A
C967        O972   1.372       .  S
C969        C970   1.400       .  A
C969        H973   1.083       .  S
C970        O974   1.372       .  S
O972        H976   0.991       .  S
O974        H975   0.992       .  S
C977        C978   1.407       .  A
C977        C982   1.413       .  A
C978        C979   1.397       .  A
C978        H983   1.083       .  S
C979        C980   1.403       .  A
C979        O984   1.372       .  S
C980        C981   1.401       .  A
C981        C982   1.402       .  A
C981        H985   1.084       .  S
C982        O986   1.372       .  S
O984        H988   0.991       .  S
O986        H987   0.991       .  S
C989        C994   1.410       .  A
C990        C991   1.399       .  A
C990        H995   1.084       .  S
C991        O996   1.372       .  S
C992        C993   1.402       .  A
C993        C994   1.402       .  A
C993        H997   1.084       .  S
C994        O998   1.372       .  S
O996       H1000   0.992       .  S
O998        H999   0.992       .  S
C1001      C1002   1.405       .  A
C1001      C1006   1.412       .  A
C1002      C1003   1.400       .  A
C1002      H1007   1.083       .  S
C1003      C1004   1.411       .  A
C1003      O1008   1.372       .  S
C1004      C1005   1.404       .  A
C1005      C1006   1.398       .  A
C1005      H1009   1.083       .  S
C1006      O1010   1.372       .  S
O1008      H1012   0.991       .  S
O1010      H1011   0.991       .  S
C1013      C1014   1.403       .  A
C1013      C1018   1.411       .  A
C1014      C1015   1.399       .  A
C1014      H1019   1.084       .  S
C1015      C1016   1.412       .  A
C1015      O1020   1.372       .  S
C1016      C1017   1.404       .  A
C1017      C1018   1.401       .  A
C1017      H1021   1.084       .  S
C1018      O1022   1.372       .  S
O1020      H1024   0.991       .  S
O1022      H1023   0.992       .  S
C1025      C2018   1.477       .  S
C1025      C1026   1.405       .  A
C1025      C2246   1.410   1_455  A
C1026      C1027   1.401       .  A
C1026      H1031   1.084       .  S
C1027      C1028   1.406       .  A
C1027      O1032   1.372       .  S
C1028      C2245   1.401   1_455  A
C1029      C2244   1.401       .  A
C1029      C1030   1.400       .  A
C1029      H1033   1.084       .  S
C1030      C2241   1.410       .  A
C1030      O1034   1.372       .  S
O1032      H1036   0.992       .  S
O1034      H1035   0.992       .  S
C1037      C2258   1.406   1_455  A
C1038      C1039   1.400       .  A
C1038      H1043   1.084       .  S
C1039      C1648   1.412       .  A
C1039      O1044   1.372       .  S
C1040      C1647   1.411       .  A
C1040      C1041   1.405       .  A
C1041      C1042   1.400       .  A
C1041      H1045   1.084       .  S
C1042      C2253   1.406       .  A
C1042      O1046   1.372       .  S
O1044      H1048   0.991       .  S
O1046      H1047   0.991       .  S
C1049      C1050   1.405       .  A
C1049      C2270   1.411       .  A
C1050      C1051   1.400       .  A
C1050      H1055   1.083       .  S
C1051      C2268   1.412       .  A
C1051      O1056   1.372       .  S
C1052      C2267   1.412   1_455  A
C1052      C1053   1.405       .  A
C1053      C1054   1.398       .  A
C1053      H1057   1.083       .  S
C1054      C2265   1.411       .  A
C1054      O1058   1.372       .  S
O1056      H1060   0.992       .  S
O1058      H1059   0.991       .  S
C1061      C2278   1.405   1_455  A
C1061      C1066   1.410       .  A
C1062      C2277   1.405       .  A
C1062      C1063   1.398       .  A
C1062      H1067   1.083       .  S
C1063      C1064   1.410       .  A
C1063      O1068   1.371       .  S
C1064      C2281   1.407       .  A
C1065      C2280   1.407       .  A
C1065      C1066   1.400       .  A
C1065      H1069   1.083       .  S
C1066      O1070   1.372       .  S
O1068      H1072   0.991       .  S
O1070      H1071   0.991       .  S
C1073      C1074   1.404       .  A
C1073      C1078   1.408       .  A
C1074      C1075   1.400       .  A
C1074      H1079   1.084       .  S
C1075      C1076   1.406       .  A
C1075      O1080   1.372       .  S
C1076      C1077   1.403       .  A
C1077      C1078   1.399       .  A
C1077      H1081   1.084       .  S
C1078      O1082   1.372       .  S
O1080      H1084   0.991       .  S
O1082      H1083   0.991       .  S
C1085      C1086   1.405       .  A
C1085      C1090   1.412       .  A
C1086      C1087   1.398   1_556  A
C1086      H1091   1.083       .  S
C1087      C1088   1.411       .  A
C1087      O1092   1.372       .  S
C1088      C1089   1.406       .  A
C1089      C1090   1.400   1_554  A
C1089      H1093   1.083       .  S
C1090      O1094   1.372       .  S
O1092      H1096   0.992       .  S
O1094      H1095   0.992       .  S
C1097      C1098   1.402       .  A
C1098      C1099   1.399       .  A
C1098      H1103   1.084       .  S
C1099      O1104   1.372       .  S
C1100      C1101   1.404   1_545  A
C1101      C1102   1.400       .  A
C1101      H1105   1.084       .  S
C1102      O1106   1.372       .  S
O1104      H1108   0.991       .  S
O1106      H1107   0.991       .  S
C1109      C1114   1.412       .  A
C1110      C1111   1.399   1_554  A
C1110      H1115   1.083       .  S
C1111      O1116   1.371       .  S
C1112      C1113   1.406       .  A
C1113      C1114   1.400   1_556  A
C1113      H1117   1.083       .  S
C1114      O1118   1.372       .  S
O1116      H1120   0.992       .  S
O1118      H1119   0.992       .  S
C1121      C1122   1.405       .  A
C1121      C1126   1.411       .  A
C1122      C1123   1.398       .  A
C1122      H1127   1.083       .  S
C1123      C1124   1.411       .  A
C1123      O1128   1.372       .  S
C1124      C1125   1.406       .  A
C1125      C1126   1.400       .  A
C1125      H1129   1.083       .  S
C1126      O1130   1.371       .  S
O1128      H1132   0.992       .  S
O1130      H1131   0.992       .  S
C1133      C1134   1.404       .  A
C1133      C1138   1.412       .  A
C1134      C1135   1.397       .  A
C1134      H1139   1.083       .  S
C1135      C1136   1.411       .  A
C1135      O1140   1.372       .  S
C1136      C1137   1.405       .  A
C1137      C1138   1.400       .  A
C1137      H1141   1.083       .  S
C1138      O1142   1.372       .  S
O1140      H1144   0.991       .  S
O1142      H1143   0.990       .  S
C1145      C1146   1.401   1_655  A
C1145      C2366   1.405       .  A
C1146      C1147   1.400       .  A
C1146      H1151   1.084       .  S
C1147      C1148   1.411       .  A
C1147      O1152   1.372       .  S
C1148      C2365   1.405   1_455  A
C1149      C2364   1.405       .  A
C1149      C1150   1.398       .  A
C1149      H1153   1.084       .  S
C1150      C2361   1.405       .  A
C1150      O1154   1.372       .  S
O1152      H1156   0.992       .  S
O1154      H1155   0.991       .  S
C1157      C2374   1.406   1_455  A
C1157      C1162   1.411       .  A
C1158      C2373   1.406       .  A
C1158      C1159   1.400   1_556  A
C1158      H1163   1.083       .  S
C1159      C2376   1.412       .  A
C1159      O1164   1.372       .  S
C1160      C2375   1.412       .  A
C1160      C1161   1.405   1_655  A
C1161      C1162   1.398   1_554  A
C1161      H1165   1.083       .  S
C1162      O1166   1.371       .  S
O1164      H1168   0.992       .  S
O1166      H1167   0.992       .  S
C1169      C2386   1.402       .  A
C1170      C2385   1.402   1_455  A
C1170      C1171   1.400       .  A
C1170      H1175   1.084       .  S
C1171      C2388   1.411   1_455  A
C1171      O1176   1.372       .  S
C1172      C2387   1.411       .  A
C1173      C1174   1.398       .  A
C1173      H1177   1.084       .  S
C1174      O1178   1.372       .  S
O1176      H1180   0.991       .  S
O1178      H1179   0.991       .  S
C1181      C1790   1.406       .  A
C1181      C1186   1.411   1_545  A
C1182      C1789   1.406       .  A
C1182      C1183   1.400   1_554  A
C1182      H1187   1.083       .  S
C1183      C1792   1.412       .  A
C1183      O1188   1.372       .  S
C1184      C1791   1.412   1_565  A
C1184      C1185   1.405       .  A
C1185      C1186   1.399   1_556  A
C1185      H1189   1.083       .  S
C1186      O1190   1.371       .  S
O1188      H1192   0.992       .  S
O1190      H1191   0.992   1_565  S
C1193      C1194   1.405       .  A
C1193      C2414   1.411       .  A
C1194      C1195   1.400       .  A
C1194      H1199   1.084       .  S
C1195      C2412   1.412       .  A
C1195      O1200   1.372       .  S
C1196      C2411   1.412       .  A
C1196      C1197   1.404   1_655  A
C1197      C1198   1.397       .  A
C1197      H1201   1.083       .  S
C1198      C2409   1.411   1_455  A
C1198      O1202   1.372       .  S
O1200      H1204   0.992       .  S
O1202      H1203   0.992       .  S
C1205      C1206   1.404       .  A
C1205      C2426   1.412   1_455  A
C1206      C1207   1.400       .  A
C1206      H1211   1.083       .  S
C1207      C2424   1.413       .  A
C1207      O1212   1.372       .  S
C1208      C2423   1.413       .  A
C1208      C1209   1.404       .  A
C1209      C1210   1.398       .  A
C1209      H1213   1.083       .  S
C1210      C2421   1.412       .  A
C1210      O1214   1.372       .  S
O1212      H1216   0.987       .  S
O1214      H1215   0.991       .  S
O1217      V1833   1.898   1_545  S
O1218      V1225   1.898       .  S
O1219      V1225   1.899       .  S
O1219      C1229   1.265       .  A
O1220      V1833   1.904   1_545  S
O1220      C1230   1.266       .  A
O1221      V1834   1.892       .  S
O1222      V1226   1.897       .  S
O1223      V1834   1.896       .  S
O1223      C1836   1.263   1_545  A
O1224      V1226   1.898       .  S
O1224      C1227   1.265       .  A
V1225      O1825   1.897       .  S
V1225      O1828   1.904       .  S
V1226      O1829   1.892       .  S
V1226      O1831   1.897       .  S
C1227      C1789   1.484   1_655  S
C1228      O1831   1.263       .  A
C1228      C1777   1.467       .  S
C1229      C1804   1.481       .  S
C1230      C1813   1.482       .  S
O1231      V1239   1.896       .  S
O1232      V1239   1.899       .  S
O1233      V1239   1.901       .  S
O1233      C1243   1.266   1_655  A
O1234      V1239   1.901       .  S
O1234      C1244   1.265       .  A
O1235      V1240   1.895       .  S
O1236      V1240   1.894       .  S
O1237      V1240   1.896       .  S
O1237      C1242   1.265       .  A
O1238      V1240   1.899       .  S
O1238      C1241   1.264       .  A
C1241      C1756   1.476       .  S
C1242      C1768   1.484       .  S
C1243      C1816   1.483       .  S
C1244      C1801   1.481       .  S
O1245      V1253   1.894       .  S
O1245      C1255   1.264       .  A
O1246      V1861   1.897       .  S
O1246      C1256   1.264       .  A
O1247      V1253   1.899       .  S
O1247      C1865   1.265       .  A
O1248      V1861   1.900       .  S
O1248      C1258   1.264       .  A
O1249      V1862   1.896       .  S
O1249      C1866   1.263       .  A
O1250      V1254   1.898       .  S
O1250      C1257   1.264       .  A
O1251      V1254   1.897       .  S
O1251      C1256   1.265       .  A
O1252      V1862   1.900       .  S
O1252      C1255   1.265       .  A
V1253      O1854   1.898       .  S
V1253      O1856   1.899       .  S
V1253      V1862   2.085       .  T
V1254      O1857   1.896       .  S
V1254      O1860   1.901   1_545  S
V1254      V1861   2.085       .  T
C1255      C1729   1.483       .  S
C1256      C1741   1.481       .  S
C1257      O1855   1.266       .  A
C1257      C1717   1.486       .  S
C1258      O1857   1.263       .  A
C1258      C1705   1.469       .  S
O1259      V1267   1.899       .  S
O1259      C1269   1.264       .  A
O1260      V1267   1.897       .  S
O1260      C1270   1.264       .  A
O1261      V1267   1.899       .  S
O1261      C1271   1.265       .  A
O1262      V1267   1.897       .  S
O1262      C1272   1.264       .  A
O1263      V1268   1.899       .  S
O1263      C1272   1.265       .  A
O1264      V1268   1.893       .  S
O1264      C1271   1.263       .  A
O1265      V1268   1.899       .  S
O1265      C1270   1.265       .  A
O1266      V1268   1.898       .  S
O1266      C1269   1.264       .  A
V1267      V1268   2.085       .  T
C1269      C1681   1.474       .  S
C1270      C1696   1.484       .  S
C1271      C1744   1.480       .  S
C1272      C1732   1.484       .  S
O1273      V1889   1.899       .  S
O1274      V1281   1.898       .  S
O1275      V1281   1.899       .  S
O1275      C1285   1.265       .  A
O1276      V1889   1.901   1_545  S
O1276      C1286   1.265       .  A
O1277      V1890   1.893       .  S
O1278      V1282   1.896       .  S
O1279      V1890   1.899   1_565  S
O1279      C1892   1.265   1_655  A
O1280      V1282   1.899       .  S
O1280      C1283   1.264   1_655  A
V1281      O1881   1.899       .  S
V1281      O1884   1.901       .  S
V1282      O1885   1.893       .  S
V1282      O1887   1.899       .  S
C1283      C2256   1.478       .  S
C1284      O1887   1.265   1_455  A
C1284      C1792   1.485       .  S
C1285      C1660   1.483       .  S
C1286      C1669   1.480       .  S
O1287      V1295   1.897       .  S
O1288      V1295   1.898       .  S
O1289      V1295   1.901       .  S
O1289      C1299   1.266   1_655  A
O1290      V1295   1.899       .  S
O1290      C1300   1.265   1_655  A
O1291      V1296   1.897       .  S
O1292      V1296   1.894       .  S
O1293      V1296   1.900       .  S
O1293      C1298   1.264       .  A
O1294      V1296   1.898       .  S
O1294      C1297   1.265       .  A
C1297      C1765   1.484       .  S
C1298      C1636   1.470       .  S
C1299      C1672   1.482       .  S
C1300      C1657   1.482       .  S
O1301      V1309   1.900       .  S
O1301      C1311   1.264       .  A
O1302      V1917   1.895       .  S
O1302      C1312   1.264       .  A
O1303      V1309   1.898       .  S
O1303      C1921   1.264       .  A
O1304      V1917   1.897       .  S
O1304      C1314   1.264       .  A
O1305      V1918   1.900       .  S
O1305      C1922   1.265       .  A
O1306      V1310   1.903   1_565  S
O1306      C1313   1.265       .  A
O1307      V1310   1.902       .  S
O1307      C1312   1.265       .  A
O1308      V1918   1.898       .  S
O1308      C1311   1.265       .  A
V1309      O1910   1.897       .  S
V1309      O1912   1.899       .  S
V1309      V1918   2.086       .  T
V1310      O1913   1.902       .  S
V1310      O1916   1.897   1_545  S
V1310      V1917   2.086       .  T
C1311      C1612   1.484       .  S
C1312      C1621   1.479       .  S
C1313      O1911   1.264   1_565  A
C1313      C2205   1.476       .  S
C1314      O1913   1.266       .  A
C1314      C1720   1.486       .  S
O1315      V1323   1.895       .  S
O1315      C1325   1.264       .  A
O1316      V1323   1.895       .  S
O1316      C1326   1.262       .  A
O1317      V1323   1.901       .  S
O1317      C1327   1.265       .  A
O1318      V1323   1.904       .  S
O1318      C1328   1.266       .  A
O1319      V1324   1.892       .  S
O1319      C1328   1.263       .  A
O1320      V1324   1.896       .  S
O1320      C1327   1.263       .  A
O1321      V1324   1.901       .  S
O1321      C1326   1.264       .  A
O1322      V1324   1.901       .  S
O1322      C1325   1.265       .  A
V1323      V1324   2.087       .  T
C1325      C1693   1.484       .  S
C1326      C1588   1.464       .  S
C1327      C1624   1.479       .  S
C1328      C1609   1.484       .  S
O1330      V1337   1.897       .  S
O1330      C1948   1.264   1_545  A
O1331      V1337   1.897       .  S
O1331      C1341   1.264   1_545  A
O1332      C1342   1.264       .  A
O1333      C1950   1.265       .  A
O1334      V1338   1.902       .  S
O1334      C1949   1.265       .  A
O1336      V1338   1.895       .  S
O1336      C1339   1.264       .  A
V1337      V1946   2.085   1_545  T
V1338      V1945   2.085       .  T
C1339      C1552   1.484       .  S
C1340      O1938   1.264       .  A
C1340      C1780   1.475       .  S
C1341      O1942   1.266       .  A
C1341      C1564   1.484       .  S
C1342      O1941   1.265   1_545  A
C1342      C1576   1.483       .  S
O1344      V1351   1.901       .  S
O1344      C1354   1.263       .  A
O1345      V1351   1.898       .  S
O1345      C1355   1.265       .  A
O1346      C1356   1.266       .  A
O1347      C1356   1.263       .  A
O1348      V1352   1.897       .  S
O1348      C1355   1.265       .  A
O1350      V1352   1.899       .  S
O1350      C1353   1.265       .  A
V1351      V1352   2.086       .  T
C1353      C1516   1.483       .  S
C1354      C1753   1.468       .  S
C1355      C1540   1.484       .  S
C1356      C1525   1.484       .  S
O1357      V1365   1.896       .  S
O1357      C1975   1.264       .  A
O1358      V1365   1.899       .  S
O1358      C1976   1.265       .  A
O1359      V1365   1.897       .  S
O1359      C1369   1.264       .  A
O1360      V1365   1.899       .  S
O1360      C1370   1.264       .  A
O1361      V1366   1.895       .  S
O1361      C1978   1.263       .  A
O1362      V1366   1.898       .  S
O1362      C1977   1.265       .  A
O1363      V1366   1.900       .  S
O1363      C1368   1.265       .  A
O1364      V1366   1.901       .  S
O1364      C1367   1.266       .  A
V1365      V1974   2.085       .  T
V1366      V1973   2.085   1_545  T
C1367      O1965   1.264   1_545  A
C1367      C1573   1.482       .  S
C1368      O1966   1.265   1_545  A
C1368      C1561   1.483       .  S
C1369      O1970   1.265       .  A
C1369      C1504   1.484       .  S
C1370      O1969   1.263       .  A
C1370      C1708   1.473       .  S
O1371      V1379   1.896       .  S
O1371      C1381   1.264       .  A
O1372      V1379   1.893       .  S
O1372      C1382   1.263       .  A
O1373      V1379   1.902       .  S
O1373      C1383   1.267       .  A
O1374      V1379   1.903       .  S
O1374      C1384   1.265       .  A
O1375      V1380   1.894       .  S
O1375      C1384   1.263       .  A
O1376      V1380   1.897       .  S
O1376      C1383   1.263       .  A
O1377      V1380   1.903       .  S
O1377      C1382   1.267       .  A
O1378      V1380   1.900       .  S
O1378      C1381   1.265       .  A
V1379      V1380   2.084       .  T
C1381      C1537   1.483       .  S
C1382      C1528   1.484       .  S
C1383      C1489   1.486       .  S
C1384      C1684   1.471       .  S
O1386      V1393   1.899       .  S
O1386      C2004   1.265       .  A
O1387      V1393   1.897       .  S
O1387      C1397   1.264       .  A
O1388      C1398   1.265       .  A
O1389      C2006   1.264   1_545  A
O1390      V1394   1.901       .  S
O1390      C2005   1.266   1_545  A
O1392      V1394   1.897       .  S
O1392      C1395   1.263   1_545  A
V1393      V2002   2.085       .  T
V1394      V2001   2.085   1_545  T
C1395      C1645   1.470       .  S
C1396      O1994   1.265       .  A
C1396      C1549   1.484       .  S
C1397      O1998   1.266       .  A
C1397      C1477   1.484       .  S
C1398      O1997   1.264       .  A
C1398      C1468   1.482       .  S
O1400      V1407   1.898       .  S
O1400      C1410   1.264       .  A
O1401      V1407   1.904   1_655  S
O1401      C1411   1.266       .  A
O1402      C1412   1.266       .  A
O1403      C1412   1.264       .  A
O1404      V1408   1.895   1_655  S
O1404      C1411   1.264       .  A
O1406      V1408   1.900       .  S
O1406      C1409   1.265       .  A
V1407      V1408   2.086       .  T
C1411      C1441   1.484       .  S
C1412      C1456   1.482       .  S
O1413      V1421   1.899       .  S
O1413      C2031   1.265       .  A
O1414      V1421   1.896       .  S
O1414      C2032   1.264       .  A
O1415      V1421   1.902       .  S
O1415      C1425   1.264       .  A
O1416      V1421   1.899       .  S
O1416      C1426   1.265       .  A
O1417      V1422   1.898       .  S
O1417      C2034   1.264       .  A
O1418      V1422   1.896       .  S
O1418      C2033   1.263   1_545  A
O1419      V1422   1.901       .  S
O1419      C1424   1.266   1_545  A
O1420      V1422   1.898       .  S
O1420      C1423   1.264   1_545  A
V1421      V2030   2.085       .  T
V1422      V2029   2.085   1_545  T
C1423      O2021   1.265       .  A
C1423      C1480   1.483       .  S
C1424      O2022   1.264       .  A
C1424      C1465   1.483       .  S
C1425      O2026   1.263       .  A
C1425      C1600   1.471       .  S
C1426      O2025   1.264       .  A
C1426      C1501   1.484       .  S
O1427      V1435   1.896       .  S
O1427      C1437   1.264       .  A
O1428      V1435   1.894       .  S
O1428      C1438   1.263       .  A
O1429      V1435   1.896       .  S
O1429      C1439   1.264       .  A
O1430      V1435   1.898       .  S
O1430      C1440   1.265       .  A
O1431      V1436   1.901       .  S
O1431      C1440   1.265       .  A
O1432      V1436   1.902       .  S
O1432      C1439   1.266       .  A
O1433      V1436   1.903       .  S
O1433      C1438   1.266       .  A
O1434      V1436   1.902       .  S
O1434      C1437   1.266       .  A
V1435      V1436   2.085       .  T
C1437      C1492   1.485       .  S
C1438      C1585   1.481       .  S
C1439      C1453   1.482       .  S
C1440      C1444   1.484       .  S
C1441      C1442   1.406       .  A
C1441      C1446   1.411       .  A
C1442      C1443   1.400       .  A
C1442      H1447   1.083       .  S
C1443      C1444   1.411       .  A
C1443      O1448   1.372       .  S
C1444      C1445   1.406       .  A
C1445      C1446   1.400       .  A
C1445      H1449   1.083       .  S
C1446      O1450   1.371       .  S
O1448      H1452   0.992       .  S
O1450      H1451   0.992       .  S
C1453      C1454   1.404       .  A
C1453      C1458   1.412       .  A
C1454      C1455   1.400       .  A
C1454      H1459   1.083       .  S
C1455      C1456   1.411       .  A
C1455      O1460   1.372       .  S
C1456      C1457   1.404       .  A
C1457      C1458   1.400       .  A
C1457      H1461   1.084       .  S
C1458      O1462   1.372       .  S
O1460      H1464   0.991       .  S
O1462      H1463   0.991       .  S
C1465      C1466   1.405   1_565  A
C1465      C2078   1.412       .  A
C1466      C1467   1.400       .  A
C1466      H1471   1.083       .  S
C1467      C2076   1.411   1_545  A
C1467      O1472   1.372       .  S
C1468      C2075   1.411       .  A
C1468      C1469   1.404       .  A
C1469      C1470   1.400       .  A
C1469      H1473   1.084       .  S
C1470      C2073   1.412       .  A
C1470      O1474   1.372       .  S
O1472      H1476   0.992       .  S
O1474      H1475   0.992       .  S
C1477      C2086   1.405       .  A
C1477      C1482   1.412       .  A
C1478      C2085   1.405   1_545  A
C1478      C1479   1.399       .  A
C1478      H1483   1.083       .  S
C1479      C1480   1.411   1_545  A
C1479      O1484   1.372       .  S
C1480      C2089   1.405       .  A
C1481      C2088   1.405       .  A
C1481      C1482   1.399       .  A
C1481      H1485   1.083       .  S
C1482      O1486   1.372       .  S
O1484      H1488   0.992       .  S
O1486      H1487   0.992       .  S
C1489      C1490   1.404       .  A
C1489      C1494   1.413       .  A
C1490      C1491   1.399       .  A
C1490      H1495   1.083       .  S
C1491      C1492   1.412       .  A
C1491      O1496   1.371       .  S
C1492      C1493   1.405       .  A
C1493      C1494   1.401       .  A
C1493      H1497   1.083       .  S
C1494      O1498   1.372       .  S
O1496      H1500   0.991       .  S
O1498      H1499   0.991       .  S
C1501      C1502   1.405       .  A
C1501      C2114   1.412       .  A
C1502      C1503   1.399       .  A
C1502      H1507   1.083       .  S
C1503      C1504   1.412       .  A
C1503      O1508   1.372       .  S
C1504      C2113   1.406       .  A
C1505      C2112   1.406   1_545  A
C1505      C1506   1.400       .  A
C1505      H1509   1.083       .  S
C1506      C2109   1.412       .  A
C1506      O1510   1.372       .  S
O1508      H1512   0.991       .  S
O1510      H1511   0.991       .  S
C1513      C1514   1.406       .  A
C1514      C1515   1.401       .  A
C1514      H1519   1.083       .  S
C1515      C1516   1.411       .  A
C1515      O1520   1.372       .  S
C1517      C1518   1.400       .  A
C1517      H1521   1.083       .  S
C1518      O1522   1.372       .  S
O1520      H1524   0.991       .  S
O1522      H1523   0.991       .  S
C1525      C1526   1.404       .  A
C1525      C1530   1.413       .  A
C1526      C1527   1.399       .  A
C1526      H1531   1.083       .  S
C1527      C1528   1.413       .  A
C1527      O1532   1.372       .  S
C1528      C1529   1.404       .  A
C1529      C1530   1.399       .  A
C1529      H1533   1.083       .  S
C1530      O1534   1.372       .  S
O1532      H1536   0.991       .  S
O1534      H1535   0.991       .  S
C1537      C1538   1.406       .  A
C1537      C1542   1.411       .  A
C1538      C1539   1.399       .  A
C1538      H1543   1.083       .  S
C1539      C1540   1.411       .  A
C1539      O1544   1.372       .  S
C1540      C1541   1.406       .  A
C1541      C1542   1.399       .  A
C1541      H1545   1.083       .  S
C1542      O1546   1.371       .  S
O1544      H1548   0.992       .  S
O1546      H1547   0.992       .  S
C1549      C2162   1.411       .  A
C1550      C1551   1.401       .  A
C1550      H1555   1.083       .  S
C1551      C2160   1.411       .  A
C1551      O1556   1.372       .  S
C1552      C2159   1.411       .  A
C1553      C1554   1.399       .  A
C1553      H1557   1.083       .  S
C1554      C2157   1.411       .  A
C1554      O1558   1.372       .  S
O1556      H1560   0.992   1_655  S
O1558      H1559   0.992       .  S
C1561      C2170   1.405   1_545  A
C1561      C1566   1.411       .  A
C1562      C2169   1.405       .  A
C1562      C1563   1.400       .  A
C1562      H1567   1.083       .  S
C1563      C2172   1.411       .  A
C1563      O1568   1.371       .  S
C1564      C2171   1.411       .  A
C1564      C1565   1.406   1_565  A
C1565      C1566   1.401       .  A
C1565      H1569   1.083       .  S
C1566      O1570   1.372       .  S
O1568      H1572   0.991       .  S
O1570      H1571   0.991       .  S
C1573      C1574   1.404       .  A
C1573      C2186   1.412   1_545  A
C1574      C1575   1.399       .  A
C1574      H1579   1.083       .  S
C1575      C1576   1.412       .  A
C1575      O1580   1.372       .  S
C1576      C2185   1.405   1_545  A
C1577      C2184   1.405       .  A
C1577      C1578   1.400       .  A
C1577      H1581   1.083       .  S
C1578      C2181   1.412       .  A
C1578      O1582   1.372       .  S
O1580      H1584   0.991       .  S
O1582      H1583   0.992       .  S
C1585      C1586   1.407       .  A
C1585      C1590   1.414       .  A
C1586      C1587   1.400       .  A
C1586      H1591   1.083       .  S
C1587      C1588   1.404       .  A
C1587      O1592   1.372       .  S
C1588      C1589   1.399       .  A
C1589      C1590   1.399       .  A
C1589      H1593   1.084       .  S
C1590      O1594   1.372       .  S
O1592      H1596   0.991       .  S
O1594      H1595   0.991       .  S
C1597      C1921   1.476       .  S
C1597      C2206   1.404       .  A
C1597      C1602   1.410       .  A
C1598      C2205   1.404   1_545  A
C1598      C1599   1.398       .  A
C1598      H1603   1.084       .  S
C1599      C2208   1.407   1_545  A
C1599      O1604   1.372       .  S
C1600      C2207   1.407       .  A
C1600      C1601   1.402       .  A
C1601      C1602   1.402       .  A
C1601      H1605   1.084       .  S
C1602      O1606   1.372       .  S
O1604      H1608   0.992       .  S
O1606      H1607   0.992       .  S
C1609      C1610   1.405       .  A
C1609      C1614   1.413       .  A
C1610      C1611   1.401       .  A
C1610      H1615   1.083       .  S
C1611      C1612   1.412       .  A
C1611      O1616   1.371       .  S
C1612      C1613   1.404       .  A
C1613      C1614   1.398       .  A
C1613      H1617   1.083       .  S
C1614      O1618   1.372       .  S
O1616      H1620   0.991       .  S
O1618      H1619   0.991       .  S
C1621      C1622   1.404       .  A
C1621      C1626   1.411       .  A
C1622      C1623   1.400       .  A
C1622      H1627   1.084       .  S
C1623      C1624   1.411       .  A
C1623      O1628   1.372       .  S
C1624      C1625   1.403       .  A
C1625      C1626   1.399       .  A
C1625      H1629   1.084       .  S
C1626      O1630   1.372       .  S
O1628      H1632   0.991       .  S
O1630      H1631   0.992       .  S
C1633      C1634   1.405       .  A
C1634      C1635   1.400       .  A
C1634      H1639   1.084       .  S
C1635      C1636   1.406       .  A
C1635      O1640   1.372       .  S
C1637      C1638   1.400       .  A
C1637      H1641   1.084       .  S
C1638      O1642   1.372       .  S
O1640      H1644   0.992       .  S
O1642      H1643   0.992       .  S
C1645      C2254   1.401       .  A
C1646      C2253   1.401       .  A
C1646      C1647   1.400       .  A
C1646      H1651   1.084       .  S
C1647      O1652   1.372       .  S
C1648      C1891   1.478   1_565  S
C1648      C1649   1.405   1_465  A
C1649      C1650   1.400       .  A
C1649      H1653   1.084       .  S
C1650      O1654   1.372       .  S
O1652      H1656   0.991       .  S
O1654      H1655   0.991       .  S
C1657      C1658   1.405   1_455  A
C1658      C1659   1.400       .  A
C1658      H1663   1.083       .  S
C1659      O1664   1.372       .  S
C1660      C1661   1.405       .  A
C1661      C1662   1.399       .  A
C1661      H1665   1.083       .  S
C1662      O1666   1.372       .  S
O1664      H1668   0.992       .  S
O1666      H1667   0.991       .  S
C1669      C1674   1.410       .  A
C1670      C1671   1.398       .  A
C1670      H1675   1.083       .  S
C1671      C1672   1.410   1_655  A
C1671      O1676   1.371       .  S
C1673      C1674   1.400       .  A
C1673      H1677   1.083       .  S
C1674      O1678   1.372       .  S
O1676      H1680   0.991       .  S
O1678      H1679   0.991       .  S
C1681      C1682   1.405       .  A
C1681      C1686   1.408       .  A
C1682      C1683   1.401       .  A
C1682      H1687   1.084       .  S
C1683      C1684   1.407       .  A
C1683      O1688   1.372       .  S
C1684      C1685   1.403       .  A
C1685      C1686   1.399       .  A
C1685      H1689   1.084       .  S
C1686      O1690   1.372       .  S
O1688      H1692   0.991       .  S
O1690      H1691   0.991       .  S
C1693      C1694   1.405       .  A
C1693      C1698   1.412       .  A
C1694      C1695   1.398   1_556  A
C1694      H1699   1.083       .  S
C1695      C1696   1.411       .  A
C1695      O1700   1.372       .  S
C1696      C1697   1.406       .  A
C1697      C1698   1.400   1_554  A
C1697      H1701   1.083       .  S
C1698      O1702   1.371       .  S
O1700      H1704   0.992       .  S
O1702      H1703   0.992       .  S
C1705      C1706   1.402       .  A
C1705      C2318   1.407   1_545  A
C1706      C1707   1.399       .  A
C1706      H1711   1.084       .  S
C1707      C2316   1.409       .  A
C1707      O1712   1.372       .  S
C1708      C2315   1.409       .  A
C1708      C1709   1.404       .  A
C1709      C1710   1.399       .  A
C1709      H1713   1.084       .  S
C1710      C2313   1.407       .  A
C1710      O1714   1.372       .  S
O1712      H1716   0.991       .  S
O1714      H1715   0.991       .  S
C1717      C2326   1.405       .  A
C1717      C1722   1.413       .  A
C1718      C2325   1.405       .  A
C1718      C1719   1.399   1_554  A
C1718      H1723   1.083       .  S
C1719      C2328   1.412       .  A
C1719      O1724   1.371       .  S
C1720      C2327   1.412       .  A
C1720      C1721   1.406       .  A
C1721      C1722   1.401   1_556  A
C1721      H1725   1.083   1_545  S
C1722      O1726   1.372   1_545  S
O1724      H1728   0.992       .  S
O1726      H1727   0.992       .  S
C1729      C1730   1.405       .  A
C1729      C1734   1.411       .  A
C1730      C1731   1.398       .  A
C1730      H1735   1.083       .  S
C1731      C1732   1.411       .  A
C1731      O1736   1.372       .  S
C1732      C1733   1.406       .  A
C1733      C1734   1.400       .  A
C1733      H1737   1.083       .  S
C1734      O1738   1.371       .  S
O1736      H1740   0.992       .  S
O1738      H1739   0.992       .  S
C1741      C1742   1.404       .  A
C1741      C1746   1.412       .  A
C1742      C1743   1.397       .  A
C1742      H1747   1.083       .  S
C1743      C1744   1.411       .  A
C1743      O1748   1.372       .  S
C1744      C1745   1.405       .  A
C1745      C1746   1.399       .  A
C1745      H1749   1.083       .  S
C1746      O1750   1.372       .  S
O1748      H1752   0.991       .  S
O1750      H1751   0.990       .  S
C1753      C1754   1.401       .  A
C1754      C1755   1.401       .  A
C1754      H1759   1.084       .  S
C1755      C1756   1.411       .  A
C1755      O1760   1.372       .  S
C1757      C1758   1.398       .  A
C1757      H1761   1.084       .  S
C1758      O1762   1.372       .  S
O1760      H1764   0.992       .  S
O1762      H1763   0.991       .  S
C1765      C1770   1.411       .  A
C1766      C1767   1.400   1_556  A
C1766      H1771   1.083       .  S
C1767      O1772   1.372       .  S
C1768      C1769   1.405       .  A
C1769      C1770   1.398   1_554  A
C1769      H1773   1.083       .  S
C1770      O1774   1.371       .  S
O1772      H1776   0.992       .  S
O1774      H1775   0.992       .  S
C1777      C2390   1.405       .  A
C1778      C1779   1.400       .  A
C1778      H1783   1.084       .  S
C1779      O1784   1.372       .  S
C1780      C2389   1.404       .  A
C1781      C2388   1.404   1_545  A
C1781      C1782   1.398       .  A
C1781      H1785   1.084       .  S
C1782      C2385   1.405   1_545  A
C1782      O1786   1.372       .  S
O1784      H1788   0.991       .  S
O1786      H1787   0.991       .  S
C1789      C1794   1.411   1_455  A
C1790      C1791   1.400   1_554  A
C1790      H1795   1.083       .  S
C1791      O1796   1.372       .  S
C1792      C1793   1.405   1_455  A
C1793      C1794   1.399   1_556  A
C1793      H1797   1.083       .  S
C1794      O1798   1.371       .  S
O1796      H1800   0.992   1_545  S
O1798      H1799   0.992       .  S
C1801      C1802   1.405       .  A
C1802      C1803   1.400       .  A
C1802      H1807   1.083       .  S
C1803      O1808   1.372       .  S
C1804      C1805   1.404       .  A
C1805      C1806   1.397       .  A
C1805      H1809   1.083       .  S
C1806      O1810   1.372       .  S
O1808      H1812   0.992       .  S
O1810      H1811   0.992       .  S
C1813      C1814   1.404       .  A
C1814      C1815   1.400       .  A
C1814      H1819   1.083       .  S
C1815      O1820   1.372       .  S
C1816      C1817   1.404   1_455  A
C1817      C1818   1.398       .  A
C1817      H1821   1.083       .  S
C1818      O1822   1.372       .  S
O1820      H1824   0.987       .  S
O1822      H1823   0.991       .  S
O1826      V1833   1.898       .  S
O1827      V1833   1.898       .  S
O1827      C1837   1.265       .  A
O1828      C1838   1.266       .  A
O1830      V1834   1.896   1_565  S
O1832      V1834   1.898   1_565  S
O1832      C1835   1.265   1_565  A
C1835      C2397   1.484   1_655  S
C1836      C2385   1.467       .  S
C1837      C2412   1.481       .  S
C1838      C2421   1.483       .  S
O1839      V1847   1.896       .  S
O1840      V1847   1.899       .  S
O1841      V1847   1.901       .  S
O1841      C1851   1.266   1_655  A
O1842      V1847   1.901       .  S
O1842      C1852   1.265       .  A
O1843      V1848   1.894       .  S
O1844      V1848   1.894       .  S
O1845      V1848   1.896       .  S
O1845      C1850   1.265       .  A
O1846      V1848   1.898       .  S
O1846      C1849   1.264       .  A
C1849      C2364   1.476       .  S
C1850      C2376   1.484       .  S
C1851      C2424   1.483       .  S
C1852      C2409   1.481       .  S
O1853      V1861   1.893   1_565  S
O1853      C1863   1.264       .  A
O1854      C1864   1.264       .  A
O1855      V1861   1.900       .  S
O1856      C1866   1.264       .  A
O1858      V1862   1.898       .  S
O1858      C1865   1.264       .  A
O1859      V1862   1.896       .  S
O1859      C1864   1.265       .  A
O1860      C1863   1.265       .  A
C1863      C2337   1.483       .  S
C1864      C2349   1.481       .  S
C1865      C2325   1.485       .  S
C1866      C2313   1.469       .  S
O1867      V1875   1.900       .  S
O1867      C1877   1.264       .  A
O1868      V1875   1.898       .  S
O1868      C1878   1.265       .  A
O1869      V1875   1.899       .  S
O1869      C1879   1.265       .  A
O1870      V1875   1.897       .  S
O1870      C1880   1.264       .  A
O1871      V1876   1.898       .  S
O1871      C1880   1.265       .  A
O1872      V1876   1.893       .  S
O1872      C1879   1.263       .  A
O1873      V1876   1.898       .  S
O1873      C1878   1.265       .  A
O1874      V1876   1.898       .  S
O1874      C1877   1.264       .  A
V1875      V1876   2.085       .  T
C1877      C2289   1.474       .  S
C1878      C2304   1.484       .  S
C1879      C2352   1.480       .  S
C1880      C2340   1.483       .  S
O1882      V1889   1.898   1_545  S
O1883      V1889   1.898       .  S
O1883      C1893   1.265       .  A
O1884      C1894   1.265       .  A
O1886      V1890   1.897   1_565  S
O1888      V1890   1.899       .  S
O1888      C1891   1.264   1_655  A
C1892      C2400   1.485   1_565  S
C1893      C2268   1.483       .  S
C1894      C2277   1.480       .  S
O1895      V1903   1.898       .  S
O1896      V1903   1.898       .  S
O1897      V1903   1.900       .  S
O1897      C1907   1.265   1_655  A
O1898      V1903   1.899       .  S
O1898      C1908   1.265   1_655  A
O1899      V1904   1.897       .  S
O1900      V1904   1.894       .  S
O1901      V1904   1.900       .  S
O1901      C1906   1.264       .  A
O1902      V1904   1.897       .  S
O1902      C1905   1.264       .  A
C1905      C2373   1.484       .  S
C1906      C2244   1.470       .  S
C1907      C2280   1.482       .  S
C1908      C2265   1.482       .  S
O1909      V1917   1.898   1_565  S
O1909      C1919   1.264       .  A
O1910      C1920   1.264       .  A
O1911      V1917   1.896       .  S
O1912      C1922   1.265       .  A
O1914      V1918   1.901       .  S
O1914      C1921   1.264       .  A
O1915      V1918   1.903       .  S
O1915      C1920   1.266       .  A
O1916      C1919   1.265       .  A
C1919      C2220   1.482       .  S
C1920      C2229   1.480       .  S
C1922      C2328   1.486       .  S
O1923      V1931   1.897       .  S
O1923      C1933   1.265       .  A
O1924      V1931   1.897       .  S
O1924      C1934   1.262       .  A
O1925      V1931   1.904       .  S
O1925      C1935   1.266       .  A
O1926      V1931   1.900       .  S
O1926      C1936   1.266       .  A
O1927      V1932   1.896       .  S
O1927      C1936   1.264       .  A
O1928      V1932   1.895       .  S
O1928      C1935   1.263       .  A
O1929      V1932   1.899       .  S
O1929      C1934   1.264       .  A
O1930      V1932   1.900       .  S
O1930      C1933   1.265       .  A
V1931      V1932   2.084       .  T
C1933      C2301   1.484       .  S
C1934      C2196   1.465       .  S
C1935      C2232   1.481       .  S
C1936      C2217   1.483       .  S
O1938      V1945   1.897       .  S
O1939      V1945   1.897       .  S
O1939      C1949   1.264       .  A
O1940      C1950   1.264       .  A
O1942      V1946   1.902       .  S
O1944      V1946   1.895       .  S
O1944      C1947   1.264   1_565  A
C1947      C2160   1.484       .  S
C1948      C2388   1.474       .  S
C1949      C2172   1.484       .  S
C1950      C2184   1.483       .  S
O1952      V1959   1.900       .  S
O1952      C1962   1.263       .  A
O1953      V1959   1.898       .  S
O1953      C1963   1.264       .  A
O1954      C1964   1.266       .  A
O1955      C1964   1.263       .  A
O1956      V1960   1.899       .  S
O1956      C1963   1.265       .  A
O1958      V1960   1.898       .  S
O1958      C1961   1.265       .  A
V1959      V1960   2.086       .  T
C1961      C2124   1.483       .  S
C1962      C2361   1.467       .  S
C1963      C2148   1.484       .  S
C1964      C2133   1.484       .  S
O1965      V1973   1.896       .  S
O1966      V1973   1.899       .  S
O1967      V1973   1.897       .  S
O1967      C1977   1.264   1_565  A
O1968      V1973   1.900       .  S
O1968      C1978   1.264   1_565  A
O1969      V1974   1.895       .  S
O1970      V1974   1.898       .  S
O1971      V1974   1.900       .  S
O1971      C1976   1.265       .  A
O1972      V1974   1.901       .  S
O1972      C1975   1.266       .  A
C1975      C2181   1.482       .  S
C1976      C2169   1.483       .  S
C1977      C2112   1.484   1_545  S
C1978      C2316   1.473       .  S
O1979      V1987   1.897       .  S
O1979      C1989   1.265       .  A
O1980      V1987   1.894       .  S
O1980      C1990   1.263       .  A
O1981      V1987   1.905       .  S
O1981      C1991   1.267       .  A
O1982      V1987   1.904       .  S
O1982      C1992   1.265       .  A
O1983      V1988   1.893       .  S
O1983      C1992   1.262       .  A
O1984      V1988   1.894       .  S
O1984      C1991   1.263       .  A
O1985      V1988   1.902       .  S
O1985      C1990   1.266       .  A
O1986      V1988   1.899       .  S
O1986      C1989   1.265       .  A
V1987      V1988   2.084       .  T
C1989      C2145   1.483       .  S
C1990      C2136   1.484       .  S
C1991      C2097   1.485       .  S
C1992      C2292   1.471       .  S
O1994      V2001   1.899       .  S
O1995      V2001   1.897       .  S
O1995      C2005   1.264       .  A
O1996      C2006   1.265       .  A
O1998      V2002   1.900       .  S
O2000      V2002   1.897       .  S
O2000      C2003   1.263       .  A
C2003      C2253   1.470       .  S
C2004      C2157   1.484       .  S
C2005      C2085   1.484       .  S
C2006      C2076   1.482       .  S
O2008      V2015   1.898       .  S
O2008      C2018   1.264       .  A
O2009      V2015   1.905   1_655  S
O2009      C2019   1.266       .  A
O2010      C2020   1.266       .  A
O2011      C2020   1.264       .  A
O2012      V2016   1.893   1_655  S
O2012      C2019   1.263       .  A
O2014      V2016   1.900   1_655  S
O2014      C2017   1.265       .  A
V2015      V2016   2.086       .  T
C2019      C2049   1.485       .  S
C2020      C2064   1.482       .  S
O2021      V2029   1.900       .  S
O2022      V2029   1.896       .  S
O2023      V2029   1.901       .  S
O2023      C2033   1.264       .  A
O2024      V2029   1.898       .  S
O2024      C2034   1.265   1_565  A
O2025      V2030   1.898       .  S
O2026      V2030   1.896       .  S
O2027      V2030   1.902       .  S
O2027      C2032   1.266       .  A
O2028      V2030   1.898       .  S
O2028      C2031   1.264       .  A
C2031      C2088   1.483       .  S
C2032      C2073   1.484       .  S
C2033      C2208   1.470       .  S
C2034      C2109   1.484       .  S
O2035      V2043   1.897       .  S
O2035      C2045   1.264       .  A
O2036      V2043   1.895       .  S
O2036      C2046   1.264       .  A
O2037      V2043   1.896       .  S
O2037      C2047   1.264       .  A
O2038      V2043   1.896       .  S
O2038      C2048   1.264       .  A
O2039      V2044   1.903       .  S
O2039      C2048   1.266       .  A
O2040      V2044   1.902       .  S
O2040      C2047   1.266       .  A
O2041      V2044   1.903       .  S
O2041      C2046   1.265       .  A
O2042      V2044   1.901       .  S
O2042      C2045   1.266       .  A
V2043      V2044   2.085       .  T
C2045      C2100   1.484       .  S
C2046      C2193   1.482       .  S
C2047      C2061   1.482       .  S
C2048      C2052   1.485       .  S
C2049      C2050   1.407       .  A
C2049      C2054   1.410       .  A
C2050      C2051   1.400       .  A
C2050      H2055   1.083       .  S
C2051      C2052   1.411       .  A
C2051      O2056   1.372       .  S
C2052      C2053   1.406       .  A
C2053      C2054   1.400       .  A
C2053      H2057   1.083       .  S
C2054      O2058   1.371       .  S
O2056      H2060   0.992       .  S
O2058      H2059   0.992       .  S
C2061      C2062   1.404       .  A
C2061      C2066   1.412       .  A
C2062      C2063   1.400       .  A
C2062      H2067   1.083       .  S
C2063      C2064   1.412       .  A
C2063      O2068   1.372       .  S
C2064      C2065   1.404       .  A
C2065      C2066   1.400       .  A
C2065      H2069   1.084       .  S
C2066      O2070   1.372       .  S
O2068      H2072   0.991       .  S
O2070      H2071   0.991       .  S
C2073      C2074   1.405       .  A
C2074      C2075   1.400       .  A
C2074      H2079   1.083       .  S
C2075      O2080   1.372       .  S
C2076      C2077   1.404       .  A
C2077      C2078   1.400       .  A
C2077      H2081   1.084       .  S
C2078      O2082   1.372       .  S
O2080      H2084   0.992       .  S
O2082      H2083   0.992       .  S
C2085      C2090   1.412       .  A
C2086      C2087   1.399       .  A
C2086      H2091   1.083       .  S
C2087      C2088   1.411       .  A
C2087      O2092   1.372       .  S
C2089      C2090   1.400       .  A
C2089      H2093   1.083       .  S
C2090      O2094   1.372       .  S
O2092      H2096   0.992       .  S
O2094      H2095   0.992       .  S
C2097      C2098   1.405       .  A
C2097      C2102   1.413       .  A
C2098      C2099   1.401       .  A
C2098      H2103   1.083       .  S
C2099      C2100   1.412       .  A
C2099      O2104   1.372       .  S
C2100      C2101   1.404       .  A
C2101      C2102   1.399       .  A
C2101      H2105   1.083       .  S
C2102      O2106   1.372       .  S
O2104      H2108   0.991       .  S
O2106      H2107   0.991       .  S
C2109      C2110   1.405   1_545  A
C2110      C2111   1.399       .  A
C2110      H2115   1.083       .  S
C2111      C2112   1.412       .  A
C2111      O2116   1.372       .  S
C2113      C2114   1.400       .  A
C2113      H2117   1.083       .  S
C2114      O2118   1.372       .  S
O2116      H2120   0.991       .  S
O2118      H2119   0.991       .  S
C2121      C2122   1.406       .  A
C2122      C2123   1.401       .  A
C2122      H2127   1.083       .  S
C2123      C2124   1.411       .  A
C2123      O2128   1.372       .  S
C2125      C2126   1.400       .  A
C2125      H2129   1.083       .  S
C2126      O2130   1.372       .  S
O2128      H2132   0.991       .  S
O2130      H2131   0.991       .  S
C2133      C2134   1.404       .  A
C2133      C2138   1.412       .  A
C2134      C2135   1.399       .  A
C2134      H2139   1.083       .  S
C2135      C2136   1.413       .  A
C2135      O2140   1.372       .  S
C2136      C2137   1.404       .  A
C2137      C2138   1.399       .  A
C2137      H2141   1.083       .  S
C2138      O2142   1.372       .  S
O2140      H2144   0.991       .  S
O2142      H2143   0.991       .  S
C2145      C2146   1.405       .  A
C2145      C2150   1.411       .  A
C2146      C2147   1.399       .  A
C2146      H2151   1.083       .  S
C2147      C2148   1.412       .  A
C2147      O2152   1.372       .  S
C2148      C2149   1.406       .  A
C2149      C2150   1.399       .  A
C2149      H2153   1.083       .  S
C2150      O2154   1.372       .  S
O2152      H2156   0.992       .  S
O2154      H2155   0.992       .  S
C2158      C2159   1.401       .  A
C2158      H2163   1.083       .  S
C2159      O2164   1.372       .  S
C2161      C2162   1.399       .  A
C2161      H2165   1.083       .  S
C2162      O2166   1.372       .  S
O2164      H2168   0.992   1_655  S
O2166      H2167   0.992       .  S
C2169      C2174   1.411       .  A
C2170      C2171   1.400       .  A
C2170      H2175   1.083       .  S
C2171      O2176   1.371       .  S
C2172      C2173   1.406       .  A
C2173      C2174   1.401       .  A
C2173      H2177   1.083       .  S
C2174      O2178   1.372       .  S
O2176      H2180   0.991       .  S
O2178      H2179   0.991       .  S
C2181      C2182   1.404       .  A
C2182      C2183   1.400       .  A
C2182      H2187   1.083       .  S
C2183      C2184   1.412       .  A
C2183      O2188   1.372       .  S
C2185      C2186   1.400       .  A
C2185      H2189   1.083       .  S
C2186      O2190   1.372       .  S
O2188      H2192   0.991       .  S
O2190      H2191   0.992       .  S
C2193      C2194   1.407       .  A
C2193      C2198   1.413       .  A
C2194      C2195   1.397       .  A
C2194      H2199   1.083       .  S
C2195      C2196   1.403       .  A
C2195      O2200   1.372       .  S
C2196      C2197   1.400       .  A
C2197      C2198   1.401       .  A
C2197      H2201   1.084       .  S
C2198      O2202   1.372       .  S
O2200      H2204   0.991       .  S
O2202      H2203   0.991       .  S
C2205      C2210   1.410       .  A
C2206      C2207   1.399       .  A
C2206      H2211   1.084       .  S
C2207      O2212   1.372       .  S
C2208      C2209   1.402       .  A
C2209      C2210   1.402       .  A
C2209      H2213   1.084       .  S
C2210      O2214   1.372       .  S
O2212      H2216   0.992       .  S
O2214      H2215   0.992       .  S
C2217      C2218   1.405       .  A
C2217      C2222   1.412       .  A
C2218      C2219   1.400       .  A
C2218      H2223   1.083       .  S
C2219      C2220   1.411       .  A
C2219      O2224   1.372       .  S
C2220      C2221   1.404       .  A
C2221      C2222   1.398       .  A
C2221      H2225   1.083       .  S
C2222      O2226   1.372       .  S
O2224      H2228   0.991       .  S
O2226      H2227   0.991       .  S
C2229      C2230   1.403       .  A
C2229      C2234   1.411       .  A
C2230      C2231   1.400       .  A
C2230      H2235   1.084       .  S
C2231      C2232   1.412       .  A
C2231      O2236   1.372       .  S
C2232      C2233   1.404       .  A
C2233      C2234   1.401       .  A
C2233      H2237   1.084       .  S
C2234      O2238   1.372       .  S
O2236      H2240   0.991       .  S
O2238      H2239   0.992       .  S
C2241      C2242   1.405       .  A
C2242      C2243   1.401       .  A
C2242      H2247   1.084       .  S
C2243      C2244   1.406       .  A
C2243      O2248   1.372       .  S
C2245      C2246   1.400       .  A
C2245      H2249   1.084       .  S
C2246      O2250   1.372       .  S
O2248      H2252   0.992       .  S
O2250      H2251   0.992       .  S
C2254      C2255   1.400       .  A
C2254      H2259   1.084       .  S
C2255      O2260   1.372       .  S
C2256      C2257   1.405   1_455  A
C2257      C2258   1.400       .  A
C2257      H2261   1.084       .  S
C2258      O2262   1.372       .  S
O2260      H2264   0.991       .  S
O2262      H2263   0.991       .  S
C2265      C2266   1.405   1_455  A
C2266      C2267   1.400       .  A
C2266      H2271   1.083       .  S
C2267      O2272   1.372       .  S
C2268      C2269   1.404       .  A
C2269      C2270   1.398       .  A
C2269      H2273   1.083       .  S
C2270      O2274   1.372       .  S
O2272      H2276   0.992       .  S
O2274      H2275   0.991       .  S
C2277      C2282   1.410       .  A
C2278      C2279   1.398       .  A
C2278      H2283   1.083       .  S
C2279      C2280   1.410   1_655  A
C2279      O2284   1.371       .  S
C2281      C2282   1.400       .  A
C2281      H2285   1.083       .  S
C2282      O2286   1.372       .  S
O2284      H2288   0.991       .  S
O2286      H2287   0.991       .  S
C2289      C2290   1.404       .  A
C2289      C2294   1.408       .  A
C2290      C2291   1.400       .  A
C2290      H2295   1.084       .  S
C2291      C2292   1.406       .  A
C2291      O2296   1.372       .  S
C2292      C2293   1.403       .  A
C2293      C2294   1.399       .  A
C2293      H2297   1.084       .  S
C2294      O2298   1.372       .  S
O2296      H2300   0.991       .  S
O2298      H2299   0.991       .  S
C2301      C2302   1.405       .  A
C2301      C2306   1.412       .  A
C2302      C2303   1.398   1_556  A
C2302      H2307   1.083       .  S
C2303      C2304   1.412       .  A
C2303      O2308   1.372       .  S
C2304      C2305   1.406       .  A
C2305      C2306   1.400   1_554  A
C2305      H2309   1.083       .  S
C2306      O2310   1.372       .  S
O2308      H2312   0.992       .  S
O2310      H2311   0.992       .  S
C2313      C2314   1.402       .  A
C2314      C2315   1.399       .  A
C2314      H2319   1.084       .  S
C2315      O2320   1.372       .  S
C2316      C2317   1.404   1_545  A
C2317      C2318   1.400       .  A
C2317      H2321   1.084       .  S
C2318      O2322   1.372       .  S
O2320      H2324   0.991       .  S
O2322      H2323   0.991       .  S
C2325      C2330   1.412       .  A
C2326      C2327   1.399   1_554  A
C2326      H2331   1.083       .  S
C2327      O2332   1.371       .  S
C2328      C2329   1.406       .  A
C2329      C2330   1.400   1_556  A
C2329      H2333   1.083       .  S
C2330      O2334   1.372       .  S
O2332      H2336   0.992       .  S
O2334      H2335   0.992       .  S
C2337      C2338   1.405       .  A
C2337      C2342   1.411       .  A
C2338      C2339   1.398       .  A
C2338      H2343   1.083       .  S
C2339      C2340   1.411       .  A
C2339      O2344   1.372       .  S
C2340      C2341   1.406       .  A
C2341      C2342   1.400       .  A
C2341      H2345   1.083       .  S
C2342      O2346   1.371       .  S
O2344      H2348   0.992       .  S
O2346      H2347   0.992       .  S
C2349      C2350   1.404       .  A
C2349      C2354   1.412       .  A
C2350      C2351   1.397       .  A
C2350      H2355   1.083       .  S
C2351      C2352   1.411       .  A
C2351      O2356   1.372       .  S
C2352      C2353   1.405       .  A
C2353      C2354   1.400       .  A
C2353      H2357   1.083       .  S
C2354      O2358   1.372       .  S
O2356      H2360   0.991       .  S
O2358      H2359   0.991       .  S
C2361      C2362   1.401       .  A
C2362      C2363   1.400       .  A
C2362      H2367   1.084       .  S
C2363      C2364   1.411       .  A
C2363      O2368   1.372       .  S
C2365      C2366   1.399       .  A
C2365      H2369   1.084       .  S
C2366      O2370   1.372       .  S
O2368      H2372   0.992       .  S
O2370      H2371   0.991       .  S
C2373      C2378   1.411       .  A
C2374      C2375   1.400   1_556  A
C2374      H2379   1.083       .  S
C2375      O2380   1.372       .  S
C2376      C2377   1.405       .  A
C2377      C2378   1.398   1_554  A
C2377      H2381   1.083       .  S
C2378      O2382   1.371       .  S
O2380      H2384   0.992       .  S
O2382      H2383   0.992       .  S
C2386      C2387   1.400       .  A
C2386      H2391   1.084       .  S
C2387      O2392   1.372       .  S
C2389      C2390   1.398       .  A
C2389      H2393   1.084       .  S
C2390      O2394   1.372       .  S
O2392      H2396   0.991       .  S
O2394      H2395   0.991       .  S
C2397      C2402   1.411   1_445  A
C2398      C2399   1.400   1_554  A
C2398      H2403   1.083       .  S
C2399      O2404   1.372       .  S
C2400      C2401   1.405   1_445  A
C2401      C2402   1.399   1_556  A
C2401      H2405   1.083       .  S
C2402      O2406   1.371       .  S
O2404      H2408   0.992       .  S
O2406      H2407   0.992   1_565  S
C2409      C2410   1.405       .  A
C2410      C2411   1.400       .  A
C2410      H2415   1.084       .  S
C2411      O2416   1.372       .  S
C2412      C2413   1.404       .  A
C2413      C2414   1.397       .  A
C2413      H2417   1.083       .  S
C2414      O2418   1.372       .  S
O2416      H2420   0.992       .  S
O2418      H2419   0.992       .  S
C2421      C2422   1.404       .  A
C2422      C2423   1.400       .  A
C2422      H2427   1.083       .  S
C2423      O2428   1.372       .  S
C2424      C2425   1.404   1_455  A
C2425      C2426   1.398       .  A
C2425      H2429   1.083       .  S
C2426      O2430   1.372       .  S
O2428      H2432   0.987       .  S
O2430      H2431   0.991       .  S
