geometry optimzed in LAMMPS
_audit_creation_date              2020-11-30 
_audit_creation_method            'lammps2cif' 
_symmetry_space_group_name_H-M    'P1' 
_symmetry_Int_Tables_number       1 
_symmetry_cell_setting            triclinic 
loop_ 
_symmetry_equiv_pos_as_xyz 
  x,y,z 
_cell_length_a                    36.13609678 
_cell_length_b                    34.137769532431896 
_cell_length_c                    36.556034435191066 
_cell_angle_alpha                 90.72838654816663 
_cell_angle_beta                  88.16922887012468 
_cell_angle_gamma                 88.29251019481879 
loop_ 
_atom_site_label 
_atom_site_type_symbol 
_atom_site_fract_x 
_atom_site_fract_y 
_atom_site_fract_z 
_atom_site_charge 
C1          C  0.42740447  0.41011732  0.43156764    -0.00800
O2          O  0.37996906  0.45556853  0.27049912    -0.78500
O3          O  0.37735867  0.40387356  0.14585907    -0.78500
O4          O  0.38585519  0.47892833  0.15746345    -0.78500
O5          O  0.41031282  0.34197675  0.21861211    -0.78400
O6          O  0.40418505  0.45842981  0.10111074    -0.78600
O7          O  0.37365520  0.39444278  0.21768352    -0.78500
O8          O  0.40728518  0.34731955  0.14434733    -0.78500
O9          O  0.39880845  0.50203934  0.23066968    -0.78500
C10         C  0.37875932  0.49153740  0.25998469     1.11200
C11         C  0.37868127  0.36824015  0.13642898     1.11100
C12         C  0.38122949  0.47620854  0.12274793     1.11300
C13         C  0.37925133  0.35849023  0.22301257     1.11100
O14         O  0.44179887  0.38684185  0.26536246    -0.78500
O15         O  0.47112204  0.46788567  0.13141485    -0.78500
O16         O  0.47920459  0.47879978  0.21067216    -0.78500
O17         O  0.48373723  0.37117436  0.14868492    -0.78400
O18         O  0.44551910  0.39547573  0.10888997    -0.78500
O19         O  0.45045437  0.45639214  0.25849879    -0.78500
O20         O  0.48262739  0.36442252  0.22197538    -0.78400
O21         O  0.45141782  0.52284251  0.15821828    -0.78500
Co22       Co  0.41199915  0.42760598  0.23515636     1.51500
Co23       Co  0.42370780  0.43507432  0.14191608     1.51700
Co24       Co  0.43341610  0.47666304  0.18523899     1.51600
Co25       Co  0.44628631  0.35898887  0.18338840     1.51500
O26         O  0.43786871  0.41750431  0.19018032    -1.40400
C27         C  0.47409273  0.37151535  0.25544812     1.11200
C28         C  0.47413123  0.50545921  0.13514558     1.11300
C29         C  0.47763817  0.47188261  0.24398455     1.11200
C30         C  0.47438579  0.37716356  0.11673468     1.11200
O31         O  0.47609367  0.25836321  0.46320182    -0.78500
O32         O  0.49209631  0.14344845  0.41684488    -0.78500
O33         O  0.48052175  0.15996796  0.00000986    -0.78500
O34         O  0.48328711  0.23949877  0.37663253    -0.78400
O35         O  0.46199974  0.10479438  0.47390267    -0.78600
O36         O  0.45436102  0.28731771  0.41020739    -0.78500
O37         O  0.47142665  0.16092534  0.36308811    -0.78500
O38         O  0.46167696  0.23700323  0.01607357    -0.78500
C39         C  0.48217647  0.25576601  0.49586159     1.11200
C40         C  0.49305888  0.14194584  0.38250013     1.11100
C41         C  0.48249755  0.12212440  0.49716204     1.11300
C42         C  0.48120097  0.27487332  0.38811627     1.11100
O43         O  0.37865825  0.24851204  0.42858995    -0.78500
O44         O  0.39479379  0.15046713  0.46589050    -0.78500
O45         O  0.39221453  0.23157401  0.00222730    -0.78500
O46         O  0.39587939  0.17161377  0.37045327    -0.78400
O47         O  0.41597586  0.11982390  0.40197258    -0.78500
O48         O  0.40570466  0.29125786  0.48215421    -0.78500
O49         O  0.40931003  0.25224915  0.37728364    -0.78400
O50         O  0.41527066  0.16278429  0.01864501    -0.78500
Co51       Co  0.42714578  0.25213857  0.44793531     1.51500
Co52       Co  0.44430593  0.14795874  0.44241369     1.51700
Co53       Co  0.43875432  0.19937422  0.48662564     1.51600
Co54       Co  0.43999433  0.20584270  0.37427536     1.51500
O55         O  0.44042811  0.20127212  0.42891459    -1.40400
C56         C  0.37964546  0.25040176  0.39478010     1.11200
C57         C  0.39367336  0.14504148  0.49959535     1.11300
C58         C  0.38608528  0.26896283  0.50277297     1.11200
C59         C  0.39329761  0.13572622  0.37935688     1.11200
O60         O  0.15418370  0.47875690  0.00999086    -0.78500
O61         O  0.16312180  0.41362512  0.36086859    -0.78500
O62         O  0.13430898  0.99280357  0.43242191    -0.78500
O63         O  0.14420509  0.41567734  0.47413523    -0.78400
O64         O  0.16677920  0.49126574  0.38051491    -0.78600
O65         O  0.17602578  0.40146642  0.01919247    -0.78500
O66         O  0.12838766  0.39878912  0.40829726    -0.78500
O67         O  0.16186629  0.03690558  0.48650826    -0.78500
C68         C  0.14447009  0.51551943  0.50914060     1.11200
C69         C  0.13309052  0.40024862  0.37432513     1.11100
C70         C  0.13588868  0.49213390  0.39824014     1.11300
C71         C  0.14711536  0.39764369  0.50227975     1.11100
O72         O  0.24595768  0.40889967  0.98232756    -0.78500
O73         O  0.24434941  0.47956876  0.39878352    -0.78500
O74         O  0.22919896  0.99251316  0.48239673    -0.78500
O75         O  0.19707088  0.35646630  0.39654925    -0.78400
O76         O  0.23632195  0.40375099  0.39020859    -0.78500
O77         O  0.22283820  0.45894219  0.03537464    -0.78500
O78         O  0.21048871  0.35952894  0.47310346    -0.78400
O79         O  0.20912756  0.02802499  0.41924843    -0.78500
Co80       Co  0.20169031  0.44406374  0.49184633     1.51500
Co81       Co  0.20294665  0.44697748  0.38482812     1.51700
Co82       Co  0.18074347  0.49226295  0.45696488     1.51600
Co83       Co  0.17006745  0.38405484  0.43863534     1.51500
O84         O  0.19028353  0.43771154  0.43736137    -1.40400
C85         C  0.23955026  0.37340148  0.48749122     1.11200
C86         C  0.23820140  0.51581386  0.40048649     1.11300
C87         C  0.24156092  0.47945134  0.51281498     1.11200
C88         C  0.22495625  0.37116484  0.38065114     1.11200
C89         C  0.17688890  0.15400322  0.43408060    -0.00800
C90         C  0.17761091  0.42687809  0.17790102    -0.00800
C91         C  0.43741464  0.17391131  0.18379110    -0.00800
O92         O  0.07107467  0.99677800  0.39280690    -0.78500
O93         O  0.09376187  0.07948856  0.26009849    -0.78500
O94         O  0.10836498  0.48828203  0.27714020    -0.78500
O95         O  0.11067836  0.08341284  0.33607914    -0.78400
O96         O  0.07213903  0.00922007  0.23508095    -0.78600
O97         O  0.07936428  0.07510216  0.38838662    -0.78500
O98         O  0.07958256  0.13576108  0.28898343    -0.78500
O99         O  0.10711654  0.48107773  0.34553959    -0.78500
C100        C  0.10285164  0.49041917  0.37828340     1.11200
C101        C  0.09906515  0.11596262  0.26586449     1.11100
C102        C  0.10173476  0.99104581  0.24403431     1.11300
C103        C  0.10817835  0.08674597  0.37079613     1.11100
O104        O  0.00302729  0.07948680  0.36187410    -0.78500
O105        O  0.00145327  0.02216830  0.27438296    -0.78500
O106        O  0.03109147  0.45179332  0.34909393    -0.78500
O107        O  0.01394402  0.10368259  0.28142897    -0.78400
O108        O  0.02662534  0.07756734  0.22732650    -0.78500
O109        O  0.99655022  0.00327033  0.36644088    -0.78500
O110        O  0.04435043  0.12179816  0.34869252    -0.78400
O111        O  0.03175291  0.46482318  0.27485722    -0.78500
Co112      Co  0.03781370  0.03848387  0.37420512     1.51500
Co113      Co  0.04598381  0.05042059  0.26934162     1.51700
Co114      Co  0.06892252  0.47459779  0.31218444     1.51600
Co115      Co  0.06395745  0.08873240  0.30836642     1.51500
O116        O  0.05484741  0.03240394  0.32075590    -1.40400
C117        C  0.01480300  0.11320354  0.36430167     1.11200
C118        C  0.00437551  0.98644874  0.26656922     1.11300
C119        C  0.00101938  0.46671235  0.36351796     1.11200
C120        C  0.00797573  0.10280171  0.24652105     1.11200
O121        O  0.01590349  0.37176164  0.01686578    -0.78500
O122        O  0.03313135  0.23169359  0.10013502    -0.78500
O123        O  0.04168313  0.26993661  0.48599843    -0.78500
O124        O  0.99991482  0.33269735  0.07702669    -0.78400
O125        O  0.01692383  0.27224096  0.04147433    -0.78600
O126        O  0.02768097  0.38531441  0.08846568    -0.78500
O127        O  0.01552918  0.28366465  0.13432312    -0.78500
O128        O  0.04629106  0.34382176  0.46977235    -0.78500
C129        C  0.01690470  0.36082540  0.98390068     1.11200
C130        C  0.01341219  0.24684682  0.12741139     1.11100
C131        C  0.01446842  0.26854296  0.00811726     1.11300
C132        C  0.99935577  0.36637070  0.08987722     1.11100
O133        O  0.10206439  0.38228591  0.07981590    -0.78500
O134        O  0.07837403  0.21646665  0.01872843    -0.78500
O135        O  0.12754606  0.33467090  0.49646187    -0.78500
O136        O  0.08669379  0.28554571  0.11711688    -0.78400
O137        O  0.11238977  0.25115165  0.07337114    -0.78500
O138        O  0.08901999  0.38179140  0.00523404    -0.78500
O139        O  0.07272331  0.34952277  0.12408973    -0.78400
O140        O  0.11846849  0.25935615  0.50180360    -0.78500
Co141      Co  0.05972066  0.37657323  0.04738073     1.51500
Co142      Co  0.06324675  0.25729567  0.05711951     1.51700
Co143      Co  0.08317168  0.30338628  0.99206091     1.51600
Co144      Co  0.04481204  0.30666847  0.09406432     1.51500
O145        O  0.07152310  0.31622970  0.04741816    -1.40400
C146        C  0.09979397  0.37141897  0.11296440     1.11200
C147        C  0.10769053  0.22453281  0.00064127     1.11300
C148        C  0.12110572  0.36921187  0.00610456     1.11200
C149        C  0.11318063  0.26576202  0.10416180     1.11200
O150        O  0.36273360  0.02102813  0.49409507    -0.78500
O151        O  0.26313600  0.02906251  0.12786313    -0.78500
O152        O  0.34704482  0.99630249  0.07523545    -0.78500
O153        O  0.28473943  0.99584080  0.05319166    -0.78400
O154        O  0.33857840  0.02404822  0.12870949    -0.78600
O155        O  0.29002406  0.01435734  0.49712976    -0.78500
O156        O  0.22103429  0.02082606  0.08588097    -0.78500
O157        O  0.40695278  0.01311072  0.03392621    -0.78500
C158        C  0.39300384  0.00352698  0.00350609     1.11200
C159        C  0.23309178  0.01265947  0.11702630     1.11100
C160        C  0.35102653  0.99654648  0.10879802     1.11300
C161        C  0.27716940  0.99185202  0.02078058     1.11100
O162        O  0.27669728  0.09855889  0.49819403    -0.78500
O163        O  0.34861349  0.10520586  0.11972325    -0.78500
O164        O  0.38645809  0.09186707  0.03666727    -0.78500
O165        O  0.23855976  0.09562878  0.07842850    -0.78400
O166        O  0.27820319  0.11508667  0.11727692    -0.76100
O167        O  0.34517131  0.10681158  0.49691441    -0.78500
O168        O  0.23592652  0.05946094  0.02079245    -0.78400
O169        O  0.39240416  0.06358617  0.09989230    -0.78500
Co170      Co  0.31846740  0.06098661  0.00194543     1.51500
Co171      Co  0.30737443  0.06843816  0.11802106     1.51700
Co172      Co  0.36473910  0.04380326  0.05465056     1.51600
Co173      Co  0.26377819  0.04607951  0.06708801     1.51500
O174        O  0.31385411  0.06810810  0.05996048    -1.40400
C175        C  0.24403188  0.08772412  0.00014582     1.11200
C176        C  0.38235046  0.09476123  0.11810245     1.11300
C177        C  0.37344105  0.11416719  0.01320890     1.11200
C178        C  0.24885779  0.11961263  0.10125952     1.11200
C179        C  0.30169284  0.31599626  0.06953194    -0.00800
C180        C  0.05708871  0.33127292  0.32432923    -0.00800
O181        O  0.20740421  0.16136676  0.28207634    -0.78500
O182        O  0.23330706  0.21722160  0.14843441    -0.78500
O183        O  0.22409540  0.14743657  0.15255165    -0.78500
O184        O  0.20388538  0.26531771  0.23499052    -0.78400
O185        O  0.20274412  0.16842588  0.09897602    -0.78600
O186        O  0.22813142  0.20766177  0.22500863    -0.78500
O187        O  0.20877904  0.27485891  0.15988011    -0.78500
O188        O  0.22748933  0.13229865  0.23033768    -0.78500
C189        C  0.23041543  0.13753739  0.26554903     1.11200
C190        C  0.23429615  0.25392685  0.14431730     1.11100
C191        C  0.22347346  0.14614869  0.11741684     1.11300
C192        C  0.22817141  0.23947153  0.24096025     1.11100
O193        O  0.15861429  0.23223543  0.27481450    -0.78500
O194        O  0.13331537  0.17126939  0.12943517    -0.78500
O195        O  0.14922230  0.11505944  0.22558593    -0.78500
O196        O  0.13231334  0.26182644  0.16092671    -0.78400
O197        O  0.16808310  0.23693947  0.11640255    -0.78500
O198        O  0.13582439  0.16782813  0.25695477    -0.78500
O199        O  0.12577327  0.25928280  0.23219196    -0.78400
O200        O  0.14835646  0.11663237  0.15384546    -0.78500
Co201      Co  0.18235665  0.18663094  0.24149917     1.51500
Co202      Co  0.18336039  0.19115846  0.14269803     1.51700
Co203      Co  0.18534175  0.13626945  0.19084997     1.51600
Co204      Co  0.16790599  0.26071198  0.19684298     1.51500
O205        O  0.16561278  0.19910669  0.19367568    -1.40400
C206        C  0.13089084  0.25431115  0.26560069     1.11200
C207        C  0.12708079  0.13552856  0.13319754     1.11300
C208        C  0.12906815  0.13379842  0.24836723     1.11200
C209        C  0.14004531  0.25581632  0.12783709     1.11200
O210        O  0.24066177  0.31906767  0.34093379    -0.78500
O211        O  0.24914310  0.27484865  0.28709487    -0.78500
O212        O  0.27406491  0.36652369  0.26384643    -0.78500
O213        O  0.27048423  0.22170675  0.35451360    -0.78400
O214        O  0.25858432  0.31924081  0.22471500    -0.78600
O215        O  0.25080790  0.26802884  0.39563782    -0.78500
O216        O  0.27516928  0.21872447  0.27719592    -0.78500
O217        O  0.27341457  0.37068185  0.34026563    -0.78500
C218        C  0.24500740  0.35341396  0.35048987     1.11200
C219        C  0.24955437  0.24288427  0.27168607     1.11100
C220        C  0.25481401  0.35483124  0.23575267     1.11300
C221        C  0.24932656  0.23293320  0.38282247     1.11100
O222        O  0.32016291  0.26504847  0.38669294    -0.78500
O223        O  0.32779138  0.32343083  0.23329061    -0.78500
O224        O  0.34898754  0.35295539  0.34679933    -0.78500
O225        O  0.35253297  0.22958917  0.27494388    -0.78400
O226        O  0.31746752  0.25327934  0.23202482    -0.78500
O227        O  0.30923146  0.33427012  0.38980282    -0.78500
O228        O  0.35175274  0.23380001  0.34403425    -0.78400
O229        O  0.35692688  0.34685671  0.27824229    -0.78500
Co230      Co  0.28261938  0.29003975  0.35899284     1.51500
Co231      Co  0.28905690  0.29930811  0.26262466     1.51700
Co232      Co  0.31337297  0.35425482  0.30700782     1.51600
Co233      Co  0.31242022  0.23059843  0.31278466     1.51500
O234        O  0.31138733  0.29314227  0.31086345    -1.40400
C235        C  0.34870710  0.24876370  0.37478480     1.11200
C236        C  0.35426787  0.34056486  0.24549784     1.11300
C237        C  0.34015072  0.35090910  0.38031872     1.11200
C238        C  0.34733627  0.23423115  0.24146289     1.11200
C239        C  0.31060182  0.07289415  0.32580462    -0.00800
C240        C  0.05454349  0.06753773  0.07145243    -0.00800
C241        C  0.07542998  0.09643752  0.09487198    -0.11600
C242        C  0.09744890  0.11561287  0.11283418    -0.13200
C243        C  0.26100924  0.11726787  0.28570131    -0.11600
C244        C  0.28508405  0.09882215  0.30277863    -0.13200
C245        C  0.08222611  0.29954159  0.30638517    -0.11600
C246        C  0.10529974  0.27660122  0.29132396    -0.13200
C247        C  0.26047645  0.27200208  0.11764151    -0.11600
C248        C  0.27900197  0.28980682  0.09448068    -0.13200
C249        C  0.40794603  0.11962860  0.13802989    -0.11600
C250        C  0.42283343  0.14424322  0.15715542    -0.13200
C251        C  0.48722945  0.22201182  0.14863218    -0.11600
C252        C  0.46425995  0.20100895  0.16418851    -0.13200
C253        C  0.45936656  0.15061687  0.21145857    -0.11600
C254        C  0.48024006  0.12930623  0.22931188    -0.13200
C255        C  0.40403066  0.19753158  0.20132585    -0.11600
C256        C  0.37656045  0.21555050  0.21590351    -0.13200
C257        C  0.12823991  0.38610793  0.13772082    -0.11600
C258        C  0.15271963  0.40205145  0.15494765    -0.13200
C259        C  0.21458001  0.48230658  0.13882484    -0.11600
C260        C  0.19864511  0.45595882  0.15512658    -0.13200
C261        C  0.12764801  0.47090656  0.21841173    -0.11600
C262        C  0.15137850  0.45090337  0.20182770    -0.13200
C263        C  0.22802848  0.38178526  0.21684593    -0.11600
C264        C  0.20490737  0.40191207  0.20001588    -0.13200
C265        C  0.15581725  0.12921835  0.40840289    -0.11600
C266        C  0.13587187  0.10853147  0.39042188    -0.13200
C267        C  0.12920899  0.19592251  0.47865681    -0.11600
C268        C  0.15003388  0.17660063  0.45827489    -0.13200
C269        C  0.19873208  0.12788726  0.45782267    -0.11600
C270        C  0.21717788  0.10783003  0.47801716    -0.13200
C271        C  0.20231547  0.18174030  0.41429040    -0.11600
C272        C  0.22366346  0.20495704  0.39989821    -0.13200
C273        C  0.08175139  0.36198121  0.33859989    -0.11600
C274        C  0.10510395  0.38253469  0.35196010    -0.13200
C275        C  0.11199415  0.03084227  0.03183661    -0.11600
C276        C  0.08479697  0.04400796  0.05014752    -0.13200
C277        C  0.27774136  0.33805689  0.04226310    -0.11600
C278        C  0.26056360  0.35229867  0.01635189    -0.13200
C279        C  0.28528315  0.05393444  0.35450872    -0.11600
C280        C  0.26301841  0.04024850  0.37728889    -0.13200
C281        C  0.33884224  0.09651923  0.34597337    -0.11600
C282        C  0.36370844  0.11310227  0.36216298    -0.13200
C283        C  0.50845814  0.10100064  0.02123053    -0.11600
C284        C  0.03012870  0.08740901  0.04366504    -0.13200
C285        C  0.35535485  0.28374897  0.02582825    -0.11600
C286        C  0.32959823  0.29410774  0.04623753    -0.13200
C287        C  0.03389102  0.31491319  0.35460514    -0.11600
C288        C  0.50969629  0.30025462  0.37357512    -0.13200
C289        C  0.32490377  0.34055913  0.09394793    -0.11600
C290        C  0.34871271  0.35301825  0.11413200    -0.13200
C291        C  0.00410879  0.02647931  0.11426925    -0.11600
C292        C  0.02855110  0.04313364  0.09575084    -0.13200
C293        C  0.02917985  0.34863088  0.29897599    -0.11600
C294        C  0.00270319  0.36054345  0.28147789    -0.13200
C295        C  0.33317707  0.04297492  0.30116686    -0.11600
C296        C  0.35413622  0.02065194  0.28181183    -0.13200
C297        C  0.40810543  0.47080089  0.47971525    -0.11600
C298        C  0.41614717  0.44317453  0.45837212    -0.13200
C299        C  0.44872101  0.42749036  0.40011714    -0.11600
C300        C  0.47217834  0.44277018  0.38039122    -0.13200
C301        C  0.39357260  0.38720529  0.41881432    -0.11600
C302        C  0.36696458  0.36958678  0.40566840    -0.13200
C303        C  0.45604260  0.38446000  0.44912005    -0.11600
C304        C  0.48418073  0.37073981  0.46265078    -0.13200
C305        C  0.42741241  0.41012714  0.93156811    -0.00800
O306        O  0.37997696  0.45556425  0.77051522    -0.78500
O307        O  0.37736442  0.40387748  0.64587242    -0.78500
O308        O  0.38584148  0.47891758  0.65748672    -0.78500
O309        O  0.41029736  0.34198436  0.71862535    -0.78400
O310        O  0.40418692  0.45844024  0.60113304    -0.78600
O311        O  0.37366135  0.39446375  0.71768360    -0.78500
O312        O  0.40727722  0.34731786  0.64435596    -0.78500
O313        O  0.39879863  0.50204548  0.73069097    -0.78500
C314        C  0.37875606  0.49153453  0.76000587     1.11200
C315        C  0.37867950  0.36824594  0.63643673     1.11100
C316        C  0.38122427  0.47621048  0.62276963     1.11300
C317        C  0.37924276  0.35851268  0.72302491     1.11100
O318        O  0.44179980  0.38683936  0.76536968    -0.78500
O319        O  0.47113475  0.46787513  0.63142611    -0.78500
O320        O  0.47918900  0.47882696  0.71068791    -0.78500
O321        O  0.48373305  0.37113826  0.64868838    -0.78400
O322        O  0.44552474  0.39547401  0.60889898    -0.78500
O323        O  0.45046506  0.45638764  0.75851443    -0.78500
O324        O  0.48262067  0.36440333  0.72198274    -0.78400
O325        O  0.45141389  0.52283107  0.65821310    -0.78500
Co326      Co  0.41200984  0.42761134  0.73516523     1.51500
Co327      Co  0.42371833  0.43507421  0.64192922     1.51700
Co328      Co  0.43340072  0.47666902  0.68526097     1.51600
Co329      Co  0.44627713  0.35897895  0.68339789     1.51500
O330        O  0.43788656  0.41750390  0.69018882    -1.40400
C331        C  0.47409062  0.37150661  0.75545452     1.11200
C332        C  0.47413632  0.50544904  0.63514893     1.11300
C333        C  0.47763589  0.47189799  0.74399745     1.11200
C334        C  0.47438446  0.37714432  0.61673925     1.11200
O335        O  0.47609734  0.25836798  0.96319359    -0.78500
O336        O  0.49209290  0.14344120  0.91684302    -0.78500
O337        O  0.48051514  0.15996199  0.50001332    -0.78500
O338        O  0.48328484  0.23949623  0.87662548    -0.78400
O339        O  0.46199888  0.10479863  0.97390869    -0.78600
O340        O  0.45435861  0.28731596  0.91019964    -0.78500
O341        O  0.47142705  0.16092218  0.86308531    -0.78500
O342        O  0.46167506  0.23699394  0.51608107    -0.78500
C343        C  0.48217700  0.25577733  0.99585409     1.11200
C344        C  0.49305681  0.14194044  0.88249824     1.11100
C345        C  0.48250018  0.12213015  0.99716415     1.11300
C346        C  0.48119843  0.27487082  0.88810883     1.11100
O347        O  0.37866260  0.24850502  0.92859034    -0.78500
O348        O  0.39479317  0.15047345  0.96589323    -0.78500
O349        O  0.39221214  0.23157727  0.50223329    -0.78500
O350        O  0.39587882  0.17160912  0.87045118    -0.78400
O351        O  0.41597163  0.11982125  0.90197532    -0.78500
O352        O  0.40570409  0.29125586  0.98215066    -0.78500
O353        O  0.40930795  0.25224343  0.87727962    -0.78400
O354        O  0.41526339  0.16277972  0.51864522    -0.78500
Co355      Co  0.42714903  0.25213728  0.94793109     1.51500
Co356      Co  0.44430420  0.14795812  0.94241328     1.51700
Co357      Co  0.43876024  0.19937713  0.98662148     1.51600
Co358      Co  0.43999363  0.20583872  0.87427150     1.51500
O359        O  0.44043292  0.20127116  0.92891098    -1.40400
C360        C  0.37964628  0.25039787  0.89478092     1.11200
C361        C  0.39367483  0.14504965  0.99959856     1.11300
C362        C  0.38608522  0.26895887  0.00276845     1.11200
C363        C  0.39329507  0.13572260  0.87935754     1.11200
O364        O  0.15418597  0.47875805  0.50995399    -0.78500
O365        O  0.16311503  0.41360855  0.86090636    -0.78500
O366        O  0.13430633  0.99280564  0.93241928    -0.78500
O367        O  0.14420382  0.41568819  0.97416977    -0.78400
O368        O  0.16678049  0.49124842  0.88053585    -0.78600
O369        O  0.17603469  0.40147392  0.51915813    -0.78500
O370        O  0.12836855  0.39878882  0.90833163    -0.78500
O371        O  0.16186312  0.03690983  0.98650428    -0.78500
C372        C  0.14446272  0.51551660  0.00916766     1.11200
C373        C  0.13307760  0.40024267  0.87435934     1.11100
C374        C  0.13588658  0.49212485  0.89825634     1.11300
C375        C  0.14710803  0.39764575  0.00230995     1.11100
O376        O  0.24597015  0.40891209  0.48230009    -0.78500
O377        O  0.24434620  0.47954942  0.89882075    -0.78500
O378        O  0.22919588  0.99251642  0.98239336    -0.78500
O379        O  0.19704314  0.35644779  0.89658476    -0.78400
O380        O  0.23630654  0.40372221  0.89026911    -0.78500
O381        O  0.22284199  0.45895463  0.53534246    -0.78500
O382        O  0.21047080  0.35951940  0.97313235    -0.78400
O383        O  0.20912679  0.02801963  0.91924555    -0.78500
Co384      Co  0.20168261  0.44405444  0.99187977     1.51500
Co385      Co  0.20294255  0.44695699  0.88486575     1.51700
Co386      Co  0.18073047  0.49225398  0.95699171     1.51600
Co387      Co  0.17004760  0.38404804  0.93866995     1.51500
O388        O  0.19026941  0.43770201  0.93739623    -1.40400
C389        C  0.23953610  0.37338885  0.98751505     1.11200
C390        C  0.23819688  0.51579531  0.90051696     1.11300
C391        C  0.24155096  0.47944357  0.01284593     1.11200
C392        C  0.22493583  0.37114258  0.88069691     1.11200
C393        C  0.17688126  0.15401485  0.93408866    -0.00800
C394        C  0.17760848  0.42688644  0.67790288    -0.00800
C395        C  0.43741589  0.17391987  0.68379345    -0.00800
O396        O  0.07107688  0.99677246  0.89280016    -0.78500
O397        O  0.09376827  0.07949999  0.76010388    -0.78500
O398        O  0.10836413  0.48828215  0.77714472    -0.78500
O399        O  0.11068538  0.08341061  0.83609286    -0.78400
O400        O  0.07213832  0.00923553  0.73507937    -0.78600
O401        O  0.07936484  0.07509824  0.88839631    -0.78500
O402        O  0.07960270  0.13576907  0.78900129    -0.78500
O403        O  0.10711931  0.48108035  0.84554840    -0.78500
C404        C  0.10285194  0.49041798  0.87829316     1.11200
C405        C  0.09907676  0.11597234  0.76587375     1.11100
C406        C  0.10173468  0.99106047  0.74402949     1.11300
C407        C  0.10818090  0.08674281  0.87080946     1.11100
O408        O  0.00303010  0.07948810  0.86187942    -0.78500
O409        O  0.00145737  0.02218526  0.77438785    -0.78500
O410        O  0.03109292  0.45179091  0.84910275    -0.78500
O411        O  0.01395796  0.10370149  0.78143773    -0.78400
O412        O  0.02663124  0.07758554  0.72733382    -0.78500
O413        O  0.99655367  0.00326979  0.86643058    -0.78500
O414        O  0.04435582  0.12180089  0.84870677    -0.78400
O415        O  0.03175428  0.46481968  0.77486627    -0.78500
Co416      Co  0.03781589  0.03848218  0.87420543     1.51500
Co417      Co  0.04598879  0.05043466  0.76934598     1.51700
Co418      Co  0.06892418  0.47459681  0.81219217     1.51600
Co419      Co  0.06396870  0.08874079  0.80837734     1.51500
O420        O  0.05485259  0.03241196  0.82075743    -1.40400
C421        C  0.01480428  0.11320555  0.86430880     1.11200
C422        C  0.00437724  0.98646486  0.76657663     1.11300
C423        C  0.00101865  0.46670928  0.86352356     1.11200
C424        C  0.00798531  0.10282053  0.74653052     1.11200
O425        O  0.01590545  0.37174883  0.51686804    -0.78500
O426        O  0.03314209  0.23168377  0.60013625    -0.78500
O427        O  0.04167854  0.26994594  0.98599725    -0.78500
O428        O  0.99992258  0.33267929  0.57703109    -0.78400
O429        O  0.01693182  0.27222382  0.54147739    -0.78600
O430        O  0.02768349  0.38529957  0.58846920    -0.78500
O431        O  0.01554825  0.28365514  0.63432676    -0.78500
O432        O  0.04628606  0.34382805  0.96977102    -0.78500
C433        C  0.01690854  0.36081575  0.48390194     1.11200
C434        C  0.01342566  0.24683833  0.62741437     1.11100
C435        C  0.01447475  0.26852832  0.50812039     1.11300
C436        C  0.99936102  0.36635131  0.58988429     1.11100
O437        O  0.10206887  0.38228238  0.57981352    -0.78500
O438        O  0.07838510  0.21645807  0.51872487    -0.78500
O439        O  0.12754561  0.33467190  0.99646545    -0.78500
O440        O  0.08671216  0.28554337  0.61710780    -0.78400
O441        O  0.11240057  0.25113748  0.57336547    -0.78500
O442        O  0.08902391  0.38179671  0.50523413    -0.78500
O443        O  0.07273388  0.34951564  0.62408819    -0.78400
O444        O  0.11846083  0.25936231  0.00181042    -0.78500
Co445      Co  0.05972379  0.37656463  0.54738138     1.51500
Co446      Co  0.06325706  0.25728574  0.55711826     1.51700
Co447      Co  0.08317596  0.30337986  0.49205924     1.51600
Co448      Co  0.04482513  0.30665837  0.59406353     1.51500
O449        O  0.07153099  0.31622160  0.54741594    -1.40400
C450        C  0.09980088  0.37141619  0.61296216     1.11200
C451        C  0.10770011  0.22452562  0.50063542     1.11300
C452        C  0.12111027  0.36921432  0.50609431     1.11200
C453        C  0.11319649  0.26575653  0.60415205     1.11200
O454        O  0.36272669  0.02104384  0.99409355    -0.78500
O455        O  0.26315235  0.02905346  0.62786820    -0.78500
O456        O  0.34705633  0.99629369  0.57523669    -0.78500
O457        O  0.28474231  0.99583094  0.55319871    -0.78400
O458        O  0.33859707  0.02404633  0.62870795    -0.78600
O459        O  0.29001723  0.01437587  0.99712509    -0.78500
O460        O  0.22104308  0.02082529  0.58589168    -0.78500
O461        O  0.40696285  0.01310143  0.53392517    -0.78500
C462        C  0.39301211  0.00351434  0.50350675     1.11200
C463        C  0.23310471  0.01265459  0.61703457     1.11100
C464        C  0.35104142  0.99654125  0.60879869     1.11300
C465        C  0.27717051  0.99184024  0.52078796     1.11100
O466        O  0.27669050  0.09857703  0.99820191    -0.78500
O467        O  0.34862282  0.10520500  0.61971570    -0.78500
O468        O  0.38646426  0.09185709  0.53666200    -0.78500
O469        O  0.23857270  0.09562673  0.57842575    -0.78400
O470        O  0.27821164  0.11507719  0.61728179    -0.76100
O471        O  0.34516493  0.10683013  0.99692272    -0.78500
O472        O  0.23593106  0.05945223  0.52079558    -0.78400
O473        O  0.39241602  0.06358662  0.59988898    -0.78500
Co474      Co  0.31847411  0.06096895  0.50194356     1.51500
Co475      Co  0.30738764  0.06843186  0.61802029     1.51700
Co476      Co  0.36474886  0.04379440  0.55464935     1.51600
Co477      Co  0.26378634  0.04607380  0.56709084     1.51500
O478        O  0.31386310  0.06809862  0.55995854    -1.40400
C479        C  0.24403764  0.08770951  0.50014187     1.11200
C480        C  0.38236037  0.09476327  0.61809700     1.11300
C481        C  0.37344514  0.11415393  0.51320221     1.11200
C482        C  0.24886896  0.11960722  0.60126067     1.11200
C483        C  0.30169355  0.31601522  0.56952742    -0.00800
C484        C  0.05708685  0.33127577  0.82433354    -0.00800
O485        O  0.20740826  0.16137743  0.78207373    -0.78500
O486        O  0.23331937  0.21722595  0.64842736    -0.78500
O487        O  0.22410469  0.14743843  0.65254968    -0.78500
O488        O  0.20388565  0.26533155  0.73498784    -0.78400
O489        O  0.20275985  0.16842486  0.59897077    -0.78600
O490        O  0.22813744  0.20767728  0.72500987    -0.78500
O491        O  0.20878974  0.27486282  0.65987707    -0.78500
O492        O  0.22749446  0.13230692  0.73033639    -0.78500
C493        C  0.23041854  0.13754549  0.76554798     1.11200
C494        C  0.23430682  0.25393223  0.64431250     1.11100
C495        C  0.22348544  0.14614697  0.61741478     1.11300
C496        C  0.22817211  0.23948767  0.74096184     1.11100
O497        O  0.15861369  0.23224560  0.77480769    -0.78500
O498        O  0.13332882  0.17126958  0.62942421    -0.78500
O499        O  0.14922754  0.11506757  0.72558538    -0.78500
O500        O  0.13232766  0.26182635  0.66091513    -0.78400
O501        O  0.16810037  0.23693987  0.61639253    -0.78500
O502        O  0.13583036  0.16783927  0.75694932    -0.78500
O503        O  0.12577595  0.25929212  0.73218191    -0.78400
O504        O  0.14836288  0.11663547  0.65384371    -0.78500
Co505      Co  0.18236283  0.18664199  0.74149507     1.51500
Co506      Co  0.18337359  0.19116049  0.64269073     1.51700
Co507      Co  0.18534836  0.13627449  0.69084761     1.51600
Co508      Co  0.16791313  0.26071841  0.69683588     1.51500
O509        O  0.16562239  0.19911273  0.69366895    -1.40400
C510        C  0.13089071  0.25432106  0.76559169     1.11200
C511        C  0.12709054  0.13552979  0.63319113     1.11300
C512        C  0.12907549  0.13380787  0.74836773     1.11200
C513        C  0.14006205  0.25581590  0.62782610     1.11200
O514        O  0.24064637  0.31906100  0.84095959    -0.78500
O515        O  0.24913497  0.27486774  0.78710122    -0.78500
O516        O  0.27403658  0.36654278  0.76387050    -0.78500
O517        O  0.27047606  0.22172079  0.85452229    -0.78400
O518        O  0.25858705  0.31925912  0.72472648    -0.78600
O519        O  0.25081445  0.26803360  0.89566089    -0.78500
O520        O  0.27516389  0.21874487  0.77720338    -0.78500
O521        O  0.27338173  0.37068512  0.84029851    -0.78500
C522        C  0.24498221  0.35340615  0.85052401     1.11200
C523        C  0.24954910  0.24290338  0.77169158     1.11100
C524        C  0.25480060  0.35484648  0.73576902     1.11300
C525        C  0.24932457  0.23294274  0.88283677     1.11100
O526        O  0.32016943  0.26506825  0.88670336    -0.78500
O527        O  0.32779567  0.32343885  0.73331356    -0.78500
O528        O  0.34896297  0.35299338  0.84681616    -0.78500
O529        O  0.35252884  0.22960217  0.77495490    -0.78400
O530        O  0.31746831  0.25329716  0.73203566    -0.78500
O531        O  0.30922657  0.33427950  0.88982425    -0.78500
O532        O  0.35174241  0.23380180  0.84404370    -0.78400
O533        O  0.35689403  0.34694102  0.77825882    -0.78500
Co534      Co  0.28261734  0.29004808  0.85901096     1.51500
Co535      Co  0.28905543  0.29932468  0.76263907     1.51700
Co536      Co  0.31334134  0.35428494  0.80703147     1.51600
Co537      Co  0.31241184  0.23061461  0.81279418     1.51500
O538        O  0.31138374  0.29316252  0.81087899    -1.40400
C539        C  0.34870500  0.24876954  0.87479271     1.11200
C540        C  0.35425234  0.34060919  0.74551824     1.11300
C541        C  0.34013955  0.35092926  0.88033673     1.11200
C542        C  0.34733581  0.23424569  0.74147330     1.11200
C543        C  0.31059911  0.07289142  0.82580443    -0.00800
C544        C  0.05454739  0.06753227  0.57145481    -0.00800
C545        C  0.07543633  0.09643476  0.59487077    -0.11600
C546        C  0.09745710  0.11561254  0.61282945    -0.13200
C547        C  0.26100888  0.11727149  0.78570228    -0.11600
C548        C  0.28508135  0.09882176  0.80277965    -0.13200
C549        C  0.08222528  0.29954865  0.80638232    -0.11600
C550        C  0.10529795  0.27661088  0.79131510    -0.13200
C551        C  0.26048327  0.27201220  0.61763569    -0.11600
C552        C  0.27900325  0.28982355  0.59447501    -0.13200
C553        C  0.40795233  0.11963529  0.63802662    -0.11600
C554        C  0.42283454  0.14425245  0.65715499    -0.13200
C555        C  0.48724378  0.22201014  0.64863448    -0.11600
C556        C  0.46426760  0.20101407  0.66419155    -0.13200
C557        C  0.45936536  0.15062073  0.71146052    -0.11600
C558        C  0.48023673  0.12930623  0.72931316    -0.13200
C559        C  0.40403168  0.19754346  0.70133106    -0.11600
C560        C  0.37656216  0.21556342  0.71591277    -0.13200
C561        C  0.12824448  0.38611125  0.63771813    -0.11600
C562        C  0.15272093  0.40205906  0.65494610    -0.13200
C563        C  0.21458825  0.48231123  0.63883101    -0.11600
C564        C  0.19864858  0.45596634  0.65513249    -0.13200
C565        C  0.12764394  0.47091138  0.71841385    -0.11600
C566        C  0.15137401  0.45091108  0.70182696    -0.13200
C567        C  0.22801517  0.38179448  0.71685776    -0.11600
C568        C  0.20489849  0.40192034  0.70002264    -0.13200
C569        C  0.15581254  0.12922473  0.90841407    -0.11600
C570        C  0.13586994  0.10853177  0.89043674    -0.13200
C571        C  0.12919838  0.19593006  0.97866302    -0.11600
C572        C  0.15002440  0.17661036  0.95828122    -0.13200
C573        C  0.19872529  0.12790300  0.95783157    -0.11600
C574        C  0.21717202  0.10784603  0.97802432    -0.13200
C575        C  0.20230694  0.18175207  0.91429788    -0.11600
C576        C  0.22365744  0.20496772  0.89990797    -0.13200
C577        C  0.08174660  0.36197990  0.83861678    -0.11600
C578        C  0.10509423  0.38253058  0.85198901    -0.13200
C579        C  0.11199418  0.03083546  0.53183630    -0.11600
C580        C  0.08479888  0.04400121  0.55014942    -0.13200
C581        C  0.27774531  0.33807539  0.54225315    -0.11600
C582        C  0.26057278  0.35231587  0.51633674    -0.13200
C583        C  0.28528137  0.05392751  0.85450698    -0.11600
C584        C  0.26301841  0.04023780  0.87728678    -0.13200
C585        C  0.33883885  0.09651579  0.84597494    -0.11600
C586        C  0.36370519  0.11309870  0.86216454    -0.13200
C587        C  0.50845749  0.10099303  0.52122527    -0.11600
C588        C  0.03013208  0.08740021  0.54366593    -0.13200
C589        C  0.35535647  0.28375762  0.52583154    -0.11600
C590        C  0.32960021  0.29412392  0.54623758    -0.13200
C591        C  0.03388466  0.31491059  0.85460270    -0.11600
C592        C  0.50969483  0.30025045  0.87356953    -0.13200
C593        C  0.32490286  0.34057809  0.59394590    -0.11600
C594        C  0.34871012  0.35303376  0.61413425    -0.13200
C595        C  0.00411443  0.02647249  0.61427401    -0.11600
C596        C  0.02855590  0.04312859  0.59575549    -0.13200
C597        C  0.02918002  0.34864002  0.79898277    -0.11600
C598        C  0.00270093  0.36054940  0.78148705    -0.13200
C599        C  0.33317580  0.04297434  0.80116566    -0.11600
C600        C  0.35413656  0.02065208  0.78181158    -0.13200
C601        C  0.40810868  0.47081573  0.97970909    -0.11600
C602        C  0.41615528  0.44318891  0.95836793    -0.13200
C603        C  0.44872919  0.42749341  0.90011313    -0.11600
C604        C  0.47218740  0.44276836  0.88038382    -0.13200
C605        C  0.39357738  0.38721391  0.91882171    -0.11600
C606        C  0.36696305  0.36959873  0.90568284    -0.13200
C607        C  0.45605186  0.38447377  0.94912420    -0.11600
C608        C  0.48419099  0.37075640  0.96265589    -0.13200
C609        C  0.42740305  0.91011696  0.43156799    -0.00800
O610        O  0.37996600  0.95556323  0.27051013    -0.78500
O611        O  0.37735156  0.90387571  0.14586747    -0.78500
O612        O  0.38583544  0.97892415  0.15747929    -0.78500
O613        O  0.41030878  0.84197506  0.21861362    -0.78400
O614        O  0.40417253  0.95843820  0.10112553    -0.78600
O615        O  0.37365277  0.89444212  0.21768888    -0.78500
O616        O  0.40727717  0.84732217  0.14434893    -0.78500
O617        O  0.39879585  0.00204014  0.23068337    -0.78500
C618        C  0.37875183  0.99153338  0.25999899     1.11200
C619        C  0.37867392  0.86824404  0.13643194     1.11100
C620        C  0.38121416  0.97621276  0.12276293     1.11300
C621        C  0.37924832  0.85848913  0.22301562     1.11100
O622        O  0.44179708  0.88683603  0.26536559    -0.78500
O623        O  0.47111344  0.96788836  0.13142342    -0.78500
O624        O  0.47918659  0.97881587  0.21068061    -0.78500
O625        O  0.48372803  0.87117335  0.14868668    -0.78400
O626        O  0.44551162  0.89548153  0.10889335    -0.78500
O627        O  0.45045170  0.95638824  0.25850726    -0.78500
O628        O  0.48262246  0.86441727  0.22197532    -0.78400
O629        O  0.45139883  0.02284289  0.15822164    -0.78500
Co630      Co  0.41199689  0.92760343  0.23516394     1.51500
Co631      Co  0.42370070  0.93507752  0.14192475     1.51700
Co632      Co  0.43339785  0.97666708  0.18525110     1.51600
Co633      Co  0.44627931  0.85898844  0.18338998     1.51500
O634        O  0.43786674  0.91750562  0.19018605    -1.40400
C635        C  0.47408982  0.87150870  0.25544869     1.11200
C636        C  0.47411712  0.00546224  0.13515219     1.11300
C637        C  0.47762720  0.97189245  0.24399171     1.11200
C638        C  0.47437486  0.87716143  0.11673706     1.11200
O639        O  0.47609185  0.75835893  0.46320189    -0.78500
O640        O  0.49209386  0.64343449  0.41683971    -0.78500
O641        O  0.48051807  0.65996357  0.00001059    -0.78500
O642        O  0.48328403  0.73949511  0.37663228    -0.78400
O643        O  0.46200214  0.60478524  0.47390312    -0.78600
O644        O  0.45435646  0.78731139  0.41020886    -0.78500
O645        O  0.47142698  0.66092254  0.36308451    -0.78500
O646        O  0.46167425  0.73699431  0.01607329    -0.78500
C647        C  0.48217616  0.75576146  0.49586109     1.11200
C648        C  0.49305715  0.64193808  0.38249470     1.11100
C649        C  0.48250165  0.62211541  0.49716121     1.11300
C650        C  0.48119671  0.77486914  0.38811690     1.11100
O651        O  0.37865546  0.74849768  0.42859277    -0.78500
O652        O  0.39479541  0.65045957  0.46589297    -0.78500
O653        O  0.39221242  0.73157112  0.00223206    -0.78500
O654        O  0.39587948  0.67160706  0.37045203    -0.78400
O655        O  0.41597294  0.61981573  0.40197133    -0.78500
O656        O  0.40570065  0.79124614  0.48215654    -0.78500
O657        O  0.40930532  0.75224158  0.37728619    -0.78400
O658        O  0.41526121  0.66277744  0.01863910    -0.78500
Co659      Co  0.42714381  0.75212879  0.44793659     1.51500
Co660      Co  0.44430561  0.64794825  0.44241190     1.51700
Co661      Co  0.43875833  0.69936462  0.48662560     1.51600
Co662      Co  0.43999283  0.70583731  0.37427533     1.51500
O663        O  0.44043053  0.70126353  0.42891466    -1.40400
C664        C  0.37964139  0.75039111  0.39478293     1.11200
C665        C  0.39367730  0.64503374  0.49959802     1.11300
C666        C  0.38608446  0.76894937  0.50277653     1.11200
C667        C  0.39329683  0.63571941  0.37935441     1.11200
O668        O  0.15420009  0.97875612  0.00997402    -0.78500
O669        O  0.16313179  0.91361785  0.36087655    -0.78500
O670        O  0.13430352  0.49281386  0.43241707    -0.78500
O671        O  0.14421429  0.91567597  0.47414112    -0.78400
O672        O  0.16678788  0.99125671  0.38052088    -0.78600
O673        O  0.17604251  0.90146749  0.01917450    -0.78500
O674        O  0.12839321  0.89878562  0.40830319    -0.78500
O675        O  0.16186392  0.53691624  0.48650082    -0.78500
C676        C  0.14447574  0.01550908  0.50915044     1.11200
C677        C  0.13309802  0.90024528  0.37433118     1.11100
C678        C  0.13589603  0.99212758  0.39824488     1.11300
C679        C  0.14711921  0.89763702  0.50228301     1.11100
O680        O  0.24597104  0.90889752  0.98230169    -0.78500
O681        O  0.24435725  0.97956148  0.39879700    -0.78500
O682        O  0.22919712  0.49252225  0.48238528    -0.78500
O683        O  0.19707402  0.85645803  0.39655628    -0.78400
O684        O  0.23632917  0.90373989  0.39022418    -0.78500
O685        O  0.22285980  0.95894106  0.03534861    -0.78500
O686        O  0.21049153  0.85951869  0.47310944    -0.78400
O687        O  0.20912385  0.52803455  0.41923645    -0.78500
Co688      Co  0.20169705  0.94405202  0.49185673     1.51500
Co689      Co  0.20295596  0.94696869  0.38483881     1.51700
Co690      Co  0.18074662  0.99225253  0.45697410     1.51600
Co691      Co  0.17007164  0.88404774  0.43864202     1.51500
O692        O  0.19028950  0.93770293  0.43737105    -1.40400
C693        C  0.23955364  0.87338906  0.48749777     1.11200
C694        C  0.23820672  0.01580645  0.40050028     1.11300
C695        C  0.24156593  0.97944199  0.51282498     1.11200
C696        C  0.22496090  0.87115641  0.38066091     1.11200
C697        C  0.17688669  0.65400231  0.43408186    -0.00800
C698        C  0.17762130  0.92687750  0.17789711    -0.00800
C699        C  0.43741297  0.67390334  0.18379050    -0.00800
O700        O  0.07106690  0.49677215  0.39280452    -0.78500
O701        O  0.09375620  0.57949506  0.26010202    -0.78500
O702        O  0.10837242  0.98827160  0.27714069    -0.78500
O703        O  0.11067737  0.58340636  0.33608728    -0.78400
O704        O  0.07212971  0.50922929  0.23508220    -0.78600
O705        O  0.07936165  0.57509656  0.38839413    -0.78500
O706        O  0.07958962  0.63576473  0.28899725    -0.78500
O707        O  0.10712312  0.98107636  0.34554247    -0.78500
C708        C  0.10285914  0.99041989  0.37828596     1.11200
C709        C  0.09906526  0.61596737  0.26587190     1.11100
C710        C  0.10172607  0.49105511  0.24403416     1.11300
C711        C  0.10817674  0.58673897  0.37080419     1.11100
O712        O  0.00302492  0.57949206  0.36188475    -0.78500
O713        O  0.00144520  0.52217791  0.27438779    -0.78500
O714        O  0.03109762  0.95179085  0.34909730    -0.78500
O715        O  0.01394615  0.60369668  0.28143666    -0.78400
O716        O  0.02661855  0.57757791  0.22733350    -0.78500
O717        O  0.99654349  0.50327182  0.36644025    -0.78500
O718        O  0.04435321  0.62179917  0.34870388    -0.78400
O719        O  0.03176008  0.96481348  0.27485737    -0.78500
Co720      Co  0.03780839  0.53848311  0.37420912     1.51500
Co721      Co  0.04597663  0.55042880  0.26934628     1.51700
Co722      Co  0.06892904  0.97459221  0.31218606     1.51600
Co723      Co  0.06395800  0.58873619  0.30837468     1.51500
O724        O  0.05484089  0.53240855  0.32075898    -1.40400
C725        C  0.01480406  0.61320777  0.36431179     1.11200
C726        C  0.00436711  0.48645836  0.26657331     1.11300
C727        C  0.00102563  0.96671098  0.36352046     1.11200
C728        C  0.00797418  0.60281522  0.24652915     1.11200
O729        O  0.01591660  0.87176514  0.01686300    -0.78500
O730        O  0.03313047  0.73169690  0.10013284    -0.78500
O731        O  0.04168499  0.76993073  0.48599828    -0.78500
O732        O  0.99992378  0.83270300  0.07701966    -0.78400
O733        O  0.01692735  0.77224710  0.04147180    -0.78600
O734        O  0.02769272  0.88531636  0.08846507    -0.78500
O735        O  0.01553035  0.78366989  0.13431875    -0.78500
O736        O  0.04629238  0.84381340  0.46976261    -0.78500
C737        C  0.01691863  0.86082868  0.98389789     1.11200
C738        C  0.01341182  0.74685189  0.12740843     1.11100
C739        C  0.01447331  0.76854669  0.00811496     1.11300
C740        C  0.99936689  0.86637338  0.08987575     1.11100
O741        O  0.10207702  0.88228299  0.07981329    -0.78500
O742        O  0.07837018  0.71646565  0.01872903    -0.78500
O743        O  0.12754989  0.83466452  0.49645037    -0.78500
O744        O  0.08669438  0.78554604  0.11711473    -0.78400
O745        O  0.11238971  0.75114900  0.07337053    -0.78500
O746        O  0.08903396  0.88179114  0.00523289    -0.78500
O747        O  0.07273371  0.84952133  0.12408661    -0.78400
O748        O  0.11847071  0.75935328  0.50180362    -0.78500
Co749      Co  0.05973313  0.87657354  0.04737904     1.51500
Co750      Co  0.06324782  0.75729681  0.05711826     1.51700
Co751      Co  0.08318066  0.80338478  0.99206004     1.51600
Co752      Co  0.04481690  0.80667086  0.09406041     1.51500
O753        O  0.07153136  0.81622935  0.04741629    -1.40400
C754        C  0.09980561  0.87141626  0.11296153     1.11200
C755        C  0.10768815  0.72452665  0.00064230     1.11300
C756        C  0.12111955  0.86921024  0.00610081     1.11200
C757        C  0.11318063  0.76576107  0.10416014     1.11200
O758        O  0.36273426  0.52102718  0.49409769    -0.78500
O759        O  0.26314241  0.52904055  0.12786914    -0.78500
O760        O  0.34705095  0.49629567  0.07522286    -0.78500
O761        O  0.28472208  0.49584227  0.05321984    -0.78400
O762        O  0.33858691  0.52403385  0.12869998    -0.78600
O763        O  0.29002437  0.51435906  0.49712313    -0.78500
O764        O  0.22102056  0.52085323  0.08589962    -0.78500
O765        O  0.40695725  0.51312013  0.03391968    -0.78500
C766        C  0.39300704  0.50352380  0.00350375     1.11200
C767        C  0.23308715  0.51265961  0.11703534     1.11100
C768        C  0.35103721  0.49653673  0.10878486     1.11300
C769        C  0.27715462  0.49184365  0.02080863     1.11100
O770        O  0.27669860  0.59855939  0.49819236    -0.78500
O771        O  0.34860829  0.60519418  0.11972978    -0.78500
O772        O  0.38644592  0.59187401  0.03667010    -0.78500
O773        O  0.23857102  0.59565370  0.07841510    -0.78400
O774        O  0.27819084  0.61506127  0.11731014    -0.76100
O775        O  0.34517093  0.60681154  0.49691995    -0.78500
O776        O  0.23591975  0.55945681  0.02079902    -0.78400
O777        O  0.39240309  0.56358486  0.09988757    -0.78500
Co778      Co  0.31846335  0.56096698  0.00194663     1.51500
Co779      Co  0.30737470  0.56841954  0.11802658     1.51700
Co780      Co  0.36473777  0.54380411  0.05464588     1.51600
Co781      Co  0.26377159  0.54609166  0.06709701     1.51500
O782        O  0.31385206  0.56810584  0.05996251    -1.40400
C783        C  0.24402751  0.58771157  0.00014395     1.11200
C784        C  0.38234685  0.59475599  0.11810218     1.11300
C785        C  0.37343308  0.61416046  0.01319921     1.11200
C786        C  0.24886001  0.61961379  0.10127169     1.11200
C787        C  0.30168889  0.81600394  0.06952774    -0.00800
C788        C  0.05709206  0.83128029  0.32432933    -0.00800
O789        O  0.20740648  0.66137466  0.28207508    -0.78500
O790        O  0.23330602  0.71723231  0.14843502    -0.78500
O791        O  0.22409394  0.64744868  0.15255699    -0.78500
O792        O  0.20388179  0.76532337  0.23498951    -0.78400
O793        O  0.20274982  0.66843165  0.09897689    -0.78600
O794        O  0.22812879  0.70766846  0.22500415    -0.78500
O795        O  0.20877379  0.77486767  0.15987959    -0.78500
O796        O  0.22748514  0.63230264  0.23033650    -0.78500
C797        C  0.23041522  0.63754364  0.26554667     1.11200
C798        C  0.23429232  0.75393761  0.14431691     1.11100
C799        C  0.22347687  0.64615624  0.11742241     1.11300
C800        C  0.22816826  0.73947702  0.24095791     1.11100
O801        O  0.15861284  0.73224048  0.27481304    -0.78500
O802        O  0.13331679  0.67127512  0.12943198    -0.78500
O803        O  0.14921638  0.61506420  0.22558422    -0.78500
O804        O  0.13231070  0.76182753  0.16092522    -0.78400
O805        O  0.16808366  0.73694412  0.11640143    -0.78500
O806        O  0.13582583  0.66783132  0.25695830    -0.78500
O807        O  0.12576934  0.75928433  0.23219062    -0.78400
O808        O  0.14835405  0.61663850  0.15384458    -0.78500
Co809      Co  0.18235609  0.68663615  0.24149823     1.51500
Co810      Co  0.18336113  0.69116513  0.14269746     1.51700
Co811      Co  0.18533805  0.63627497  0.19084998     1.51600
Co812      Co  0.16790198  0.76071654  0.19684216     1.51500
O813        O  0.16560970  0.69911139  0.19367517    -1.40400
C814        C  0.13088852  0.75431486  0.26559926     1.11200
C815        C  0.12707924  0.63553533  0.13319662     1.11300
C816        C  0.12906678  0.63380243  0.24837016     1.11200
C817        C  0.14004412  0.75581815  0.12783600     1.11200
O818        O  0.24066121  0.81906637  0.34093392    -0.78500
O819        O  0.24914041  0.77485032  0.28709475    -0.78500
O820        O  0.27406584  0.86652062  0.26384623    -0.78500
O821        O  0.27047687  0.72170699  0.35451389    -0.78400
O822        O  0.25858862  0.81923765  0.22471341    -0.78600
O823        O  0.25080398  0.76802932  0.39563916    -0.78500
O824        O  0.27516299  0.71872487  0.27719569    -0.78500
O825        O  0.27341205  0.87068125  0.34026700    -0.78500
C826        C  0.24500671  0.85341174  0.35049295     1.11200
C827        C  0.24954988  0.74288671  0.27168521     1.11100
C828        C  0.25481801  0.85482810  0.23575071     1.11300
C829        C  0.24932010  0.73293434  0.38282286     1.11100
O830        O  0.32015999  0.76504549  0.38669544    -0.78500
O831        O  0.32779419  0.82342278  0.23329294    -0.78500
O832        O  0.34898500  0.85295476  0.34680102    -0.78500
O833        O  0.35252871  0.72958066  0.27494685    -0.78400
O834        O  0.31746702  0.75327361  0.23202649    -0.78500
O835        O  0.30923018  0.83426746  0.38980456    -0.78500
O836        O  0.35174599  0.73379086  0.34403776    -0.78400
O837        O  0.35692413  0.84685752  0.27824474    -0.78500
Co838      Co  0.28261743  0.79003765  0.35899440     1.51500
Co839      Co  0.28905767  0.79930447  0.26262543     1.51700
Co840      Co  0.31337061  0.85425302  0.30700942     1.51600
Co841      Co  0.31241406  0.73059471  0.31278620     1.51500
O842        O  0.31138647  0.79313908  0.31086530    -1.40400
C843        C  0.34870192  0.74875566  0.37478831     1.11200
C844        C  0.35426663  0.84056294  0.24550063     1.11300
C845        C  0.34014911  0.85090699  0.38032044     1.11200
C846        C  0.34733428  0.73422330  0.24146554     1.11200
C847        C  0.31060411  0.57289483  0.32579166    -0.00800
C848        C  0.05453261  0.56754590  0.07146263    -0.00800
C849        C  0.07542133  0.59644643  0.09487903    -0.11600
C850        C  0.09744372  0.61562145  0.11283712    -0.13200
C851        C  0.26101070  0.61727380  0.28569550    -0.11600
C852        C  0.28508710  0.59882624  0.30276871    -0.13200
C853        C  0.08222735  0.79954875  0.30638358    -0.11600
C854        C  0.10529922  0.77660686  0.29132225    -0.13200
C855        C  0.26047013  0.77201437  0.11763956    -0.11600
C856        C  0.27899482  0.78981847  0.09447754    -0.13200
C857        C  0.40794190  0.61962547  0.13802722    -0.11600
C858        C  0.42283003  0.64423919  0.15715272    -0.13200
C859        C  0.48722948  0.72200388  0.14863398    -0.11600
C860        C  0.46425901  0.70100149  0.16418952    -0.13200
C861        C  0.45936552  0.65060364  0.21145390    -0.11600
C862        C  0.48023987  0.62929008  0.22930355    -0.13200
C863        C  0.40402963  0.69752303  0.20132843    -0.11600
C864        C  0.37655938  0.71554179  0.21590687    -0.13200
C865        C  0.12825143  0.88610541  0.13771766    -0.11600
C866        C  0.15273091  0.90205070  0.15494324    -0.13200
C867        C  0.21458751  0.98231056  0.13882344    -0.11600
C868        C  0.19865431  0.95596133  0.15512487    -0.13200
C869        C  0.12765802  0.97089973  0.21841196    -0.11600
C870        C  0.15138872  0.95089930  0.20182579    -0.13200
C871        C  0.22803592  0.88178259  0.21684155    -0.11600
C872        C  0.20491726  0.90191081  0.20001058    -0.13200
C873        C  0.15581518  0.62921441  0.40840726    -0.11600
C874        C  0.13586988  0.60852478  0.39042935    -0.13200
C875        C  0.12920873  0.69591890  0.47866029    -0.11600
C876        C  0.15003232  0.67659759  0.45827732    -0.13200
C877        C  0.19873299  0.62788936  0.45782266    -0.11600
C878        C  0.21717980  0.60783324  0.47801650    -0.13200
C879        C  0.20230962  0.68174112  0.41428999    -0.11600
C880        C  0.22365622  0.70495911  0.39989806    -0.13200
C881        C  0.08175664  0.86198618  0.33860123    -0.11600
C882        C  0.10511071  0.88253582  0.35196395    -0.13200
C883        C  0.11198065  0.53084499  0.03185090    -0.11600
C884        C  0.08478418  0.54401253  0.05016068    -0.13200
C885        C  0.27774220  0.83806256  0.04225296    -0.11600
C886        C  0.26056961  0.85230147  0.01633683    -0.13200
C887        C  0.28528310  0.55393453  0.35449377    -0.11600
C888        C  0.26301547  0.54025275  0.37727392    -0.13200
C889        C  0.33884360  0.59651690  0.34596405    -0.11600
C890        C  0.36370883  0.61309725  0.36215719    -0.13200
C891        C  0.50846068  0.60099614  0.02122600    -0.11600
C892        C  0.03012139  0.58741558  0.04367215    -0.13200
C893        C  0.35535043  0.78374647  0.02583040    -0.11600
C894        C  0.32959443  0.79410988  0.04623835    -0.13200
C895        C  0.03389602  0.81491920  0.35460511    -0.11600
C896        C  0.50969175  0.80025152  0.37357602    -0.13200
C897        C  0.32489931  0.84056790  0.09394369    -0.11600
C898        C  0.34870662  0.85302590  0.11413052    -0.13200
C899        C  0.00409598  0.52648965  0.11427907    -0.11600
C900        C  0.02853839  0.54314484  0.09576171    -0.13200
C901        C  0.02918193  0.84863977  0.29897786    -0.11600
C902        C  0.00270444  0.86055066  0.28147980    -0.13200
C903        C  0.33318100  0.54297870  0.30115065    -0.11600
C904        C  0.35414245  0.52065851  0.28179441    -0.13200
C905        C  0.40810486  0.97080384  0.47971085    -0.11600
C906        C  0.41614482  0.94317620  0.45836906    -0.13200
C907        C  0.44871848  0.92748863  0.40011612    -0.11600
C908        C  0.47217319  0.94277096  0.38038910    -0.13200
C909        C  0.39357180  0.88720265  0.41881590    -0.11600
C910        C  0.36696367  0.86958392  0.40567013    -0.13200
C911        C  0.45604175  0.88446385  0.44912501    -0.11600
C912        C  0.48417861  0.87074727  0.46266130    -0.13200
C913        C  0.42739644  0.91012259  0.93157250    -0.00800
O914        O  0.37996762  0.95556367  0.77051221    -0.78500
O915        O  0.37735959  0.90387111  0.64587269    -0.78500
O916        O  0.38584406  0.97891431  0.65748198    -0.78500
O917        O  0.41029820  0.84197354  0.71862823    -0.78400
O918        O  0.40418692  0.95842960  0.60112950    -0.78600
O919        O  0.37365089  0.89444520  0.71769252    -0.78500
O920        O  0.40727474  0.84731190  0.64436048    -0.78500
O921        O  0.39879932  0.00203957  0.73068569    -0.78500
C922        C  0.37875385  0.99153352  0.76000053     1.11200
C923        C  0.37867623  0.86823856  0.63643999     1.11100
C924        C  0.38122698  0.97620498  0.62276491     1.11300
C925        C  0.37923970  0.85849311  0.72302751     1.11100
O926        O  0.44179428  0.88683564  0.76537370    -0.78500
O927        O  0.47113033  0.96787010  0.63142643    -0.78500
O928        O  0.47918936  0.97881306  0.71068905    -0.78500
O929        O  0.48372908  0.87114241  0.64869554    -0.78400
O930        O  0.44551984  0.89546505  0.60890182    -0.78500
O931        O  0.45045355  0.95638259  0.75851347    -0.78500
O932        O  0.48261724  0.86440337  0.72198688    -0.78400
O933        O  0.45141342  0.02282705  0.65821584    -0.78500
Co934      Co  0.41199889  0.92760193  0.73516738     1.51500
Co935      Co  0.42371312  0.93506702  0.64192944     1.51700
Co936      Co  0.43340281  0.97666065  0.68525748     1.51600
Co937      Co  0.44627485  0.85897521  0.68340197     1.51500
O938        O  0.43787530  0.91749709  0.69019197    -1.40400
C939        C  0.47408636  0.87150556  0.75545859     1.11200
C940        C  0.47413322  0.00544448  0.63514919     1.11300
C941        C  0.47762895  0.97188782  0.74399959     1.11200
C942        C  0.47438001  0.87713895  0.61674550     1.11200
O943        O  0.47608842  0.75837261  0.96319570    -0.78500
O944        O  0.49208837  0.64343228  0.91684078    -0.78500
O945        O  0.48051979  0.65995295  0.50001146    -0.78500
O946        O  0.48327189  0.73949505  0.87662060    -0.78400
O947        O  0.46199458  0.60479480  0.97390967    -0.78600
O948        O  0.45434408  0.78731201  0.91019665    -0.78500
O949        O  0.47142556  0.66091930  0.86308290    -0.78500
O950        O  0.46167852  0.73698452  0.51608053    -0.78500
C951        C  0.48217105  0.75577435  0.99585561     1.11200
C952        C  0.49305621  0.64193721  0.88249556     1.11100
C953        C  0.48249769  0.62212595  0.99716385     1.11300
C954        C  0.48118436  0.77486895  0.88810515     1.11100
O955        O  0.37865280  0.74848852  0.92859585    -0.78500
O956        O  0.39478568  0.65047062  0.96588613    -0.78500
O957        O  0.39221444  0.73156427  0.50223619    -0.78500
O958        O  0.39587284  0.67159795  0.87045215    -0.78400
O959        O  0.41596800  0.61981076  0.90197381    -0.78500
O960        O  0.40569410  0.79125216  0.98214764    -0.78500
O961        O  0.40929202  0.75223220  0.87728260    -0.78400
O962        O  0.41527022  0.66276959  0.51864630    -0.78500
Co963      Co  0.42714106  0.75213171  0.94793224     1.51500
Co964      Co  0.44429881  0.64795164  0.94241003     1.51700
Co965      Co  0.43875569  0.69937104  0.98662082     1.51600
Co966      Co  0.43998478  0.70583215  0.87427073     1.51500
O967        O  0.44043245  0.70126680  0.92891052    -1.40400
C968        C  0.37963222  0.75037968  0.89478650     1.11200
C969        C  0.39366458  0.64504571  0.99959084     1.11300
C970        C  0.38607986  0.76895565  0.00276987     1.11200
C971        C  0.39328960  0.63571163  0.87935795     1.11200
O972        O  0.15419457  0.97874859  0.50996677    -0.78500
O973        O  0.16312327  0.91361143  0.86088866    -0.78500
O974        O  0.13429535  0.49280577  0.93243381    -0.78500
O975        O  0.14421073  0.91568473  0.97415659    -0.78400
O976        O  0.16679025  0.99125082  0.88052034    -0.78600
O977        O  0.17603728  0.90146135  0.51916513    -0.78500
O978        O  0.12837729  0.89879473  0.90831559    -0.78500
O979        O  0.16185085  0.53691013  0.98652092    -0.78500
C980        C  0.14447685  0.01551543  0.00915173     1.11200
C981        C  0.13308591  0.90024709  0.87434312     1.11100
C982        C  0.13589705  0.99212663  0.89824208     1.11300
C983        C  0.14712186  0.89764359  0.00229712     1.11100
O984        O  0.24597522  0.90889956  0.48230859    -0.78500
O985        O  0.24435586  0.97955143  0.89880074    -0.78500
O986        O  0.22918218  0.49251487  0.98241808    -0.78500
O987        O  0.19704869  0.85645126  0.89656829    -0.78400
O988        O  0.23631504  0.90372329  0.89024584    -0.78500
O989        O  0.22285095  0.95894110  0.53535264    -0.78500
O990        O  0.21047966  0.85951946  0.97311384    -0.78400
O991        O  0.20911767  0.52801850  0.91926304    -0.78500
Co992      Co  0.20169809  0.94405394  0.99185797     1.51500
Co993      Co  0.20295170  0.94695892  0.88484655     1.51700
Co994      Co  0.18074195  0.99225407  0.95697349     1.51600
Co995      Co  0.17005546  0.88405036  0.93865339     1.51500
O996        O  0.19027995  0.93770258  0.93737696    -1.40400
C997        C  0.23954675  0.87338801  0.98749407     1.11200
C998        C  0.23820633  0.01579743  0.90049985     1.11300
C999        C  0.24156857  0.97944521  0.01281894     1.11200
C1000       C  0.22494189  0.87114292  0.88067877     1.11200
C1001       C  0.17687077  0.65400166  0.93409156    -0.00800
C1002       C  0.17761754  0.92687852  0.67789828    -0.00800
C1003       C  0.43741480  0.67391102  0.68379810    -0.00800
O1004       O  0.07106563  0.49677141  0.89281143    -0.78500
O1005       O  0.09374945  0.57949242  0.76010245    -0.78500
O1006       O  0.10837608  0.98828884  0.77713518    -0.78500
O1007       O  0.11067277  0.58340720  0.83608892    -0.78400
O1008       O  0.07212436  0.50922692  0.73508847    -0.78600
O1009       O  0.07935742  0.57509494  0.88839621    -0.78500
O1010       O  0.07958339  0.63576283  0.78899583    -0.78500
O1011       O  0.10713028  0.98108287  0.84553600    -0.78500
C1012       C  0.10286283  0.99042023  0.87828053     1.11200
C1013       C  0.09905755  0.61596519  0.76586940     1.11100
C1014       C  0.10172268  0.49105575  0.74403890     1.11300
C1015       C  0.10817180  0.58673828  0.87080606     1.11100
O1016       O  0.00302178  0.57948804  0.86188660    -0.78500
O1017       O  0.00144250  0.52217258  0.77439814    -0.78500
O1018       O  0.03110616  0.95179302  0.84909197    -0.78500
O1019       O  0.01394013  0.60369385  0.78143991    -0.78400
O1020       O  0.02660993  0.57757233  0.72733803    -0.78500
O1021       O  0.99654195  0.50326861  0.86644399    -0.78500
O1022       O  0.04434843  0.62179705  0.84870513    -0.78400
O1023       O  0.03176389  0.96482915  0.77485711    -0.78500
Co1024     Co  0.03780586  0.53848068  0.87421293     1.51500
Co1025     Co  0.04597136  0.55042574  0.76935161     1.51700
Co1026     Co  0.06893569  0.97460202  0.81218148     1.51600
Co1027     Co  0.06395350  0.58873457  0.80837649     1.51500
O1028       O  0.05483954  0.53240683  0.82076377    -1.40400
C1029       C  0.01479961  0.61320437  0.86431288     1.11200
C1030       C  0.00436705  0.48645328  0.76658316     1.11300
C1031       C  0.00103163  0.96671064  0.86351267     1.11200
C1032       C  0.00796714  0.60281170  0.74653267     1.11200
O1033       O  0.01590884  0.87174703  0.51685679    -0.78500
O1034       O  0.03314711  0.73169032  0.60013709    -0.78500
O1035       O  0.04168402  0.76994923  0.98599544    -0.78500
O1036       O  0.99992623  0.83268479  0.57702200    -0.78400
O1037       O  0.01693409  0.77222214  0.54147759    -0.78600
O1038       O  0.02768442  0.88530784  0.58845684    -0.78500
O1039       O  0.01555031  0.78366454  0.63432213    -0.78500
O1040       O  0.04629986  0.84383029  0.96976914    -0.78500
C1041       C  0.01691084  0.86081003  0.48389188     1.11200
C1042       C  0.01342930  0.74684671  0.62741313     1.11100
C1043       C  0.01447664  0.76852615  0.50812041     1.11300
C1044       C  0.99936337  0.86635668  0.58987582     1.11100
O1045       O  0.10207185  0.88228887  0.57980117    -0.78500
O1046       O  0.07838742  0.71645725  0.51872881    -0.78500
O1047       O  0.12755718  0.83466807  0.99646603    -0.78500
O1048       O  0.08671513  0.78555476  0.61710546    -0.78400
O1049       O  0.11240352  0.75114350  0.57336674    -0.78500
O1050       O  0.08902697  0.88178879  0.50522059    -0.78500
O1051       O  0.07273650  0.84952570  0.62407791    -0.78400
O1052       O  0.11846386  0.75935461  0.00180993    -0.78500
Co1053     Co  0.05972651  0.87656719  0.54736920     1.51500
Co1054     Co  0.06326079  0.75728944  0.55711757     1.51700
Co1055     Co  0.08317832  0.80337458  0.49205327     1.51600
Co1056     Co  0.04482801  0.80666553  0.59405742     1.51500
O1057       O  0.07153396  0.81622412  0.54740922    -1.40400
C1058       C  0.09980459  0.87142382  0.61295032     1.11200
C1059       C  0.10770195  0.72452302  0.50063829     1.11300
C1060       C  0.12111308  0.86920660  0.50608588     1.11200
C1061       C  0.11319878  0.76576437  0.60415240     1.11200
O1062       O  0.36272339  0.52102736  0.99409254    -0.78500
O1063       O  0.26314197  0.52905726  0.62786689    -0.78500
O1064       O  0.34704728  0.49629202  0.57524309    -0.78500
O1065       O  0.28473896  0.49583032  0.55319089    -0.78400
O1066       O  0.33858701  0.52404565  0.62871362    -0.78600
O1067       O  0.29001072  0.51435475  0.99714620    -0.78500
O1068       O  0.22103851  0.52082121  0.58588584    -0.78500
O1069       O  0.40695786  0.51309437  0.53393288    -0.78500
C1070       C  0.39301071  0.50351057  0.50351185     1.11200
C1071       C  0.23309622  0.51265579  0.61703143     1.11100
C1072       C  0.35103391  0.49654105  0.60880481     1.11300
C1073       C  0.27716720  0.49184287  0.52077967     1.11100
O1074       O  0.27668772  0.59855890  0.99819522    -0.78500
O1075       O  0.34861724  0.60520375  0.61971842    -0.78500
O1076       O  0.38646390  0.59185033  0.53666522    -0.78500
O1077       O  0.23856532  0.59562188  0.57842752    -0.78400
O1078       O  0.27820678  0.61508073  0.61727698    -0.76100
O1079       O  0.34516554  0.60680758  0.99690361    -0.78500
O1080       O  0.23592973  0.55945515  0.52079389    -0.78400
O1081       O  0.39240909  0.56358242  0.59989414    -0.78500
Co1082     Co  0.31847439  0.56096911  0.50194391     1.51500
Co1083     Co  0.30738004  0.56843308  0.61802096     1.51700
Co1084     Co  0.36474390  0.54379003  0.55465372     1.51600
Co1085     Co  0.26378210  0.54607105  0.56708858     1.51500
O1086       O  0.31385889  0.56809685  0.55995936    -1.40400
C1087       C  0.24403841  0.58771190  0.50014068     1.11200
C1088       C  0.38235422  0.59475938  0.61810178     1.11300
C1089       C  0.37344618  0.61414950  0.51320648     1.11200
C1090       C  0.24886168  0.61960589  0.60125922     1.11200
C1091       C  0.30169336  0.81600017  0.56953355    -0.00800
C1092       C  0.05709192  0.83127751  0.82433000    -0.00800
O1093       O  0.20739281  0.66136078  0.78207559    -0.78500
O1094       O  0.23331224  0.71721629  0.64843353    -0.78500
O1095       O  0.22409352  0.64742822  0.65255091    -0.78500
O1096       O  0.20387991  0.76531586  0.73499313    -0.78400
O1097       O  0.20275021  0.66842137  0.59897334    -0.78600
O1098       O  0.22812656  0.70765975  0.72501201    -0.78500
O1099       O  0.20878692  0.77485479  0.65988430    -0.78500
O1100       O  0.22747949  0.63229127  0.73033834    -0.78500
C1101       C  0.23040347  0.63752903  0.76555021     1.11200
C1102       C  0.23430284  0.75392259  0.64431974     1.11100
C1103       C  0.22347574  0.64614179  0.61741566     1.11300
C1104       C  0.22816399  0.73946904  0.74096557     1.11100
O1105       O  0.15860545  0.73223286  0.77481007    -0.78500
O1106       O  0.13331858  0.67127114  0.62942538    -0.78500
O1107       O  0.14920960  0.61505962  0.72558175    -0.78500
O1108       O  0.13232316  0.76182682  0.66091824    -0.78400
O1109       O  0.16809672  0.73693862  0.61639721    -0.78500
O1110       O  0.13581516  0.66782978  0.75694874    -0.78500
O1111       O  0.12577000  0.75928326  0.73218458    -0.78400
O1112       O  0.14835001  0.61663387  0.65384090    -0.78500
Co1113     Co  0.18235007  0.68662860  0.74149648     1.51500
Co1114     Co  0.18336447  0.69115586  0.64269374     1.51700
Co1115     Co  0.18533466  0.63626620  0.69084739     1.51600
Co1116     Co  0.16790778  0.76071061  0.69684050     1.51500
O1117       O  0.16561216  0.69910552  0.69367095    -1.40400
C1118       C  0.13088487  0.75431137  0.76559405     1.11200
C1119       C  0.12707885  0.63553145  0.63318988     1.11300
C1120       C  0.12905763  0.63379984  0.74836433     1.11200
C1121       C  0.14006006  0.75581893  0.62782958     1.11200
O1122       O  0.24064515  0.81905231  0.84095217    -0.78500
O1123       O  0.24913020  0.77484389  0.78710568    -0.78500
O1124       O  0.27404483  0.86651814  0.76386411    -0.78500
O1125       O  0.27045884  0.72170475  0.85452828    -0.78400
O1126       O  0.25857987  0.81923472  0.72472714    -0.78600
O1127       O  0.25079732  0.76802552  0.89565969    -0.78500
O1128       O  0.27515081  0.71871756  0.77720900    -0.78500
O1129       O  0.27339153  0.87066930  0.84028647    -0.78500
C1130       C  0.24498726  0.85339803  0.85051102     1.11200
C1131       C  0.24954002  0.74287996  0.77169598     1.11100
C1132       C  0.25480210  0.85482418  0.73576582     1.11300
C1133       C  0.24930656  0.73293282  0.88283987     1.11100
O1134       O  0.32015355  0.76504613  0.88670948    -0.78500
O1135       O  0.32778750  0.82342039  0.73331012    -0.78500
O1136       O  0.34896735  0.85295792  0.84681562    -0.78500
O1137       O  0.35251478  0.72956566  0.77496314    -0.78400
O1138       O  0.31746215  0.75327201  0.73204138    -0.78500
O1139       O  0.30921901  0.83426461  0.88982170    -0.78500
O1140       O  0.35172561  0.73377178  0.84405373    -0.78400
O1141       O  0.35690408  0.84688258  0.77825907    -0.78500
Co1142     Co  0.28260763  0.79003203  0.85901146     1.51500
Co1143     Co  0.28904896  0.79930091  0.76264020     1.51700
Co1144     Co  0.31334995  0.85425298  0.80702654     1.51600
Co1145     Co  0.31239705  0.73058650  0.81280122     1.51500
O1146       O  0.31137675  0.79313461  0.81088048    -1.40400
C1147       C  0.34868873  0.74874409  0.87480104     1.11200
C1148       C  0.35425278  0.84057536  0.74551608     1.11300
C1149       C  0.34013582  0.85090773  0.88033562     1.11200
C1150       C  0.34732720  0.73421777  0.74148140     1.11200
C1151       C  0.31058811  0.57288153  0.82581104    -0.00800
C1152       C  0.05454022  0.56753653  0.57145047    -0.00800
C1153       C  0.07542679  0.59643895  0.59486729    -0.11600
C1154       C  0.09744585  0.61561711  0.61282679    -0.13200
C1155       C  0.26099465  0.61725588  0.78570542    -0.11600
C1156       C  0.28506839  0.59880905  0.80278443    -0.13200
C1157       C  0.08222689  0.79954731  0.80638145    -0.11600
C1158       C  0.10529618  0.77660498  0.79131674    -0.13200
C1159       C  0.26048091  0.77200088  0.61764333    -0.11600
C1160       C  0.27900216  0.78981040  0.59448227    -0.13200
C1161       C  0.40794716  0.61962813  0.63803320    -0.11600
C1162       C  0.42283219  0.64424282  0.65716170    -0.13200
C1163       C  0.48723911  0.72200105  0.64863505    -0.11600
C1164       C  0.46426277  0.70100639  0.66419333    -0.13200
C1165       C  0.45936983  0.65061600  0.71146296    -0.11600
C1166       C  0.48024773  0.62930746  0.72931361    -0.13200
C1167       C  0.40403020  0.69753021  0.70133873    -0.11600
C1168       C  0.37655799  0.71554355  0.71592173    -0.13200
C1169       C  0.12825096  0.88611528  0.63770557    -0.11600
C1170       C  0.15272898  0.90205700  0.65493656    -0.13200
C1171       C  0.21459940  0.98230654  0.63883227    -0.11600
C1172       C  0.19866061  0.95595949  0.65513162    -0.13200
C1173       C  0.12765331  0.97090918  0.71840570    -0.11600
C1174       C  0.15138252  0.95090429  0.70182173    -0.13200
C1175       C  0.22801973  0.88177699  0.71685350    -0.11600
C1176       C  0.20490506  0.90190680  0.70001817    -0.13200
C1177       C  0.15580407  0.62921412  0.90841376    -0.11600
C1178       C  0.13586291  0.60852427  0.89043224    -0.13200
C1179       C  0.12919125  0.69591881  0.97866629    -0.11600
C1180       C  0.15001398  0.67659473  0.95828535    -0.13200
C1181       C  0.19871739  0.62788922  0.95783177    -0.11600
C1182       C  0.21716704  0.60783306  0.97802269    -0.13200
C1183       C  0.20229279  0.68174245  0.91430325    -0.11600
C1184       C  0.22363995  0.70496059  0.89991363    -0.13200
C1185       C  0.08175340  0.86198308  0.83860615    -0.11600
C1186       C  0.10510202  0.88253482  0.85197455    -0.13200
C1187       C  0.11198848  0.53084609  0.53182717    -0.11600
C1188       C  0.08479311  0.54400931  0.55014229    -0.13200
C1189       C  0.27774601  0.83805974  0.54225876    -0.11600
C1190       C  0.26057462  0.85230117  0.51634237    -0.13200
C1191       C  0.28527103  0.55391920  0.85451644    -0.11600
C1192       C  0.26300842  0.54023308  0.87729941    -0.13200
C1193       C  0.33882838  0.59650749  0.84597970    -0.11600
C1194       C  0.36369722  0.61308870  0.86216741    -0.13200
C1195       C  0.50846292  0.60098522  0.52122483    -0.11600
C1196       C  0.03012437  0.58740661  0.54366405    -0.13200
C1197       C  0.35535600  0.78374176  0.52583738    -0.11600
C1198       C  0.32960024  0.79410775  0.54624443    -0.13200
C1199       C  0.03389486  0.81491558  0.85460349    -0.11600
C1200       C  0.50968203  0.80024901  0.87356739    -0.13200
C1201       C  0.32490179  0.84056484  0.59395075    -0.11600
C1202       C  0.34870800  0.85302336  0.61413843    -0.13200
C1203       C  0.00411096  0.52647296  0.61427211    -0.11600
C1204       C  0.02855028  0.54313022  0.59575118    -0.13200
C1205       C  0.02918262  0.84863809  0.79898007    -0.11600
C1206       C  0.00270353  0.86054665  0.78148414    -0.13200
C1207       C  0.33316747  0.54296506  0.80117293    -0.11600
C1208       C  0.35413282  0.52064720  0.78181856    -0.13200
C1209       C  0.40809676  0.97081536  0.97971041    -0.11600
C1210       C  0.41613845  0.94318538  0.95837114    -0.13200
C1211       C  0.44871367  0.92749028  0.90011891    -0.11600
C1212       C  0.47217225  0.94276824  0.88039247    -0.13200
C1213       C  0.39356360  0.88720664  0.91882380    -0.11600
C1214       C  0.36695342  0.86958629  0.90568250    -0.13200
C1215       C  0.45603613  0.88447040  0.94912986    -0.11600
C1216       C  0.48417529  0.87075353  0.96266207    -0.13200
C1217       C  0.92740514  0.41011488  0.43156820    -0.00800
O1218       O  0.87996541  0.45556219  0.27050947    -0.78500
O1219       O  0.87735264  0.40387417  0.14586831    -0.78500
O1220       O  0.88583687  0.47892286  0.15747828    -0.78500
O1221       O  0.91031108  0.34197362  0.21861520    -0.78400
O1222       O  0.90417336  0.45843573  0.10112470    -0.78600
O1223       O  0.87365380  0.39443956  0.21768927    -0.78500
O1224       O  0.90727842  0.34732055  0.14435050    -0.78500
O1225       O  0.89879595  0.50203878  0.23068262    -0.78500
C1226       C  0.87875135  0.49153227  0.25999805     1.11200
C1227       C  0.87867507  0.36824234  0.13643347     1.11100
C1228       C  0.88121513  0.47621066  0.12276209     1.11300
C1229       C  0.87925015  0.35848686  0.22301675     1.11100
O1230       O  0.94179864  0.38683580  0.26536609    -0.78500
O1231       O  0.97111421  0.46788679  0.13142299    -0.78500
O1232       O  0.97918736  0.47881355  0.21068068    -0.78500
O1233       O  0.98372941  0.37117249  0.14868667    -0.78400
O1234       O  0.94551199  0.39547943  0.10889375    -0.78500
O1235       O  0.95045082  0.45638816  0.25850737    -0.78500
O1236       O  0.98262438  0.36441754  0.22197582    -0.78400
O1237       O  0.95140023  0.52284138  0.15822168    -0.78500
Co1238     Co  0.91199703  0.42760209  0.23516405     1.51500
Co1239     Co  0.92370148  0.43507589  0.14192471     1.51700
Co1240     Co  0.93339893  0.47666555  0.18525074     1.51600
Co1241     Co  0.94628104  0.35898745  0.18339083     1.51500
O1242       O  0.93786726  0.41750443  0.19018633    -1.40400
C1243       C  0.97409156  0.37150870  0.25544921     1.11200
C1244       C  0.97411819  0.50546064  0.13515195     1.11300
C1245       C  0.97762708  0.47189097  0.24399191     1.11200
C1246       C  0.97437584  0.37716037  0.11673709     1.11200
O1247       O  0.97609383  0.25835524  0.46320082    -0.78500
O1248       O  0.99209745  0.14343237  0.41683768    -0.78500
O1249       O  0.98051867  0.15996171  0.00001123    -0.78500
O1250       O  0.98328501  0.23949114  0.37663014    -0.78400
O1251       O  0.96200648  0.10478150  0.47390118    -0.78600
O1252       O  0.95435786  0.28730690  0.41020770    -0.78500
O1253       O  0.97142802  0.16091879  0.36308303    -0.78500
O1254       O  0.96167580  0.23699274  0.01607379    -0.78500
C1255       C  0.98217774  0.25575801  0.49586014     1.11200
C1256       C  0.99305995  0.14193598  0.38249267     1.11100
C1257       C  0.98250489  0.12211197  0.49716003     1.11300
C1258       C  0.98119791  0.27486494  0.38811536     1.11100
O1259       O  0.87865725  0.24849200  0.42859232    -0.78500
O1260       O  0.89479925  0.15045427  0.46589163    -0.78500
O1261       O  0.89221373  0.23157002  0.00223410    -0.78500
O1262       O  0.89588059  0.17160327  0.37045234    -0.78400
O1263       O  0.91597629  0.11981164  0.40196982    -0.78500
O1264       O  0.90570229  0.29124194  0.48215505    -0.78500
O1265       O  0.90930617  0.25223744  0.37728539    -0.78400
O1266       O  0.91526187  0.16277660  0.01864047    -0.78500
Co1267     Co  0.92714575  0.25212420  0.44793569     1.51500
Co1268     Co  0.94430929  0.14794436  0.44241030     1.51700
Co1269     Co  0.93876042  0.19936075  0.48662444     1.51600
Co1270     Co  0.93999388  0.20583336  0.37427428     1.51500
O1271       O  0.94043307  0.20125953  0.42891350    -1.40400
C1272       C  0.87964259  0.25038681  0.39478252     1.11200
C1273       C  0.89368069  0.14502926  0.49959678     1.11300
C1274       C  0.88608612  0.26894551  0.50277536     1.11200
C1275       C  0.89329887  0.13571543  0.37935413     1.11200
O1276       O  0.65419841  0.47875623  0.00997354    -0.78500
O1277       O  0.66312823  0.41362204  0.36087703    -0.78500
O1278       O  0.63430141  0.99281758  0.43242037    -0.78500
O1279       O  0.64421547  0.41567804  0.47414135    -0.78400
O1280       O  0.66678561  0.49126086  0.38052355    -0.78600
O1281       O  0.67604299  0.40146716  0.01917639    -0.78500
O1282       O  0.62839182  0.39878743  0.40830443    -0.78500
O1283       O  0.66186463  0.03691813  0.48650386    -0.78500
C1284       C  0.64447503  0.51551049  0.50915184     1.11200
C1285       C  0.63309531  0.40024826  0.37433236     1.11100
C1286       C  0.63589397  0.49213064  0.39824778     1.11300
C1287       C  0.64711967  0.39763769  0.50228244     1.11100
O1288       O  0.74597133  0.40889874  0.98230486    -0.78500
O1289       O  0.74435544  0.47956347  0.39879641    -0.78500
O1290       O  0.72919752  0.99252306  0.48238519    -0.78500
O1291       O  0.69707279  0.35646061  0.39655494    -0.78400
O1292       O  0.73632697  0.40374328  0.39021987    -0.78500
O1293       O  0.72285673  0.45894276  0.03535073    -0.78500
O1294       O  0.71049245  0.35952033  0.47310790    -0.78400
O1295       O  0.70912239  0.02803817  0.41923851    -0.78500
Co1296     Co  0.70169599  0.44405336  0.49185752     1.51500
Co1297     Co  0.70295324  0.44697212  0.38483859     1.51700
Co1298     Co  0.68074621  0.49225424  0.45697566     1.51600
Co1299     Co  0.67007152  0.38404969  0.43864165     1.51500
O1300       O  0.69028902  0.43770492  0.43737129    -1.40400
C1301       C  0.73955424  0.37339080  0.48749678     1.11200
C1302       C  0.73820586  0.51580845  0.40050085     1.11300
C1303       C  0.74156486  0.47944234  0.51282651     1.11200
C1304       C  0.72495936  0.37115903  0.38065861     1.11200
C1305       C  0.67688738  0.15400182  0.43408283    -0.00800
C1306       C  0.67762040  0.42687750  0.17789915    -0.00800
C1307       C  0.93741342  0.17390358  0.18379032    -0.00800
O1308       O  0.57106366  0.99677516  0.39280746    -0.78500
O1309       O  0.59375637  0.07949778  0.26010541    -0.78500
O1310       O  0.60837296  0.48827438  0.27714376    -0.78500
O1311       O  0.61067522  0.08340820  0.33609000    -0.78400
O1312       O  0.57213079  0.00923216  0.23508424    -0.78600
O1313       O  0.57935861  0.07509930  0.38839644    -0.78500
O1314       O  0.57958863  0.13576741  0.28900017    -0.78500
O1315       O  0.60712149  0.48107892  0.34554547    -0.78500
C1316       C  0.60285707  0.49042214  0.37828889     1.11200
C1317       C  0.59906488  0.11597027  0.26587528     1.11100
C1318       C  0.60172675  0.99105768  0.24403686     1.11300
C1319       C  0.60817423  0.08674089  0.37080680     1.11100
O1320       O  0.50302220  0.07949427  0.36188516    -0.78500
O1321       O  0.50144513  0.02218019  0.27438707    -0.78500
O1322       O  0.53109628  0.45179227  0.34909798    -0.78500
O1323       O  0.51394533  0.10369886  0.28143782    -0.78400
O1324       O  0.52662004  0.07758091  0.22733469    -0.78500
O1325       O  0.49654097  0.00327422  0.36644121    -0.78500
O1326       O  0.54435076  0.12180149  0.34870589    -0.78400
O1327       O  0.53176137  0.46481471  0.27485794    -0.78500
Co1328     Co  0.53780552  0.03848572  0.37421077     1.51500
Co1329     Co  0.54597665  0.05043139  0.26934779     1.51700
Co1330     Co  0.56892866  0.47459421  0.31218801     1.51600
Co1331     Co  0.56395643  0.08873861  0.30837690     1.51500
O1332       O  0.55483901  0.03241096  0.32076081    -1.40400
C1333       C  0.51480128  0.11320989  0.36431306     1.11200
C1334       C  0.50436723  0.98646049  0.26657305     1.11300
C1335       C  0.50102403  0.46671207  0.36352097     1.11200
C1336       C  0.50797457  0.10281757  0.24653009     1.11200
O1337       O  0.51591760  0.37176578  0.01686147    -0.78500
O1338       O  0.53313003  0.23169854  0.10013398    -0.78500
O1339       O  0.54168405  0.26993270  0.48599695    -0.78500
O1340       O  0.49992294  0.33270557  0.07702012    -0.78400
O1341       O  0.51692681  0.27224948  0.04147257    -0.78600
O1342       O  0.52769243  0.38531932  0.08846310    -0.78500
O1343       O  0.51552914  0.28367191  0.13431920    -0.78500
O1344       O  0.54629124  0.34381533  0.46976032    -0.78500
C1345       C  0.51692002  0.36082892  0.98389648     1.11200
C1346       C  0.51341116  0.24685375  0.12740927     1.11100
C1347       C  0.51447272  0.26854889  0.00811560     1.11300
C1348       C  0.49936638  0.36637676  0.08987451     1.11100
O1349       O  0.60207674  0.38228400  0.07981372    -0.78500
O1350       O  0.57836861  0.21646582  0.01873044    -0.78500
O1351       O  0.62754987  0.33466562  0.49644611    -0.78500
O1352       O  0.58669331  0.28554750  0.11711555    -0.78400
O1353       O  0.61238915  0.25115111  0.07337121    -0.78500
O1354       O  0.58903533  0.38178996  0.00523256    -0.78500
O1355       O  0.57273158  0.34952401  0.12408705    -0.78400
O1356       O  0.61847030  0.25935501  0.50179963    -0.78500
Co1357     Co  0.55973359  0.37657445  0.04737822     1.51500
Co1358     Co  0.56324703  0.25729787  0.05711910     1.51700
Co1359     Co  0.58318106  0.30338447  0.99206067     1.51600
Co1360     Co  0.54481592  0.30667279  0.09406101     1.51500
O1361       O  0.57153088  0.31623025  0.04741673    -1.40400
C1362       C  0.59980413  0.37141819  0.11296229     1.11200
C1363       C  0.60768692  0.22452603  0.00064394     1.11300
C1364       C  0.62112078  0.36920897  0.00610151     1.11200
C1365       C  0.61317974  0.26576301  0.10416110     1.11200
O1366       O  0.86273703  0.02102468  0.49409834    -0.78500
O1367       O  0.76314302  0.02903633  0.12787031    -0.78500
O1368       O  0.84705174  0.99629390  0.07522172    -0.78500
O1369       O  0.78471999  0.99584312  0.05322308    -0.78400
O1370       O  0.83858776  0.02403034  0.12869953    -0.78600
O1371       O  0.79002691  0.01435607  0.49712094    -0.78500
O1372       O  0.72101869  0.02085651  0.08590205    -0.78500
O1373       O  0.90695774  0.01312145  0.03392043    -0.78500
C1374       C  0.89300690  0.00352422  0.00350505     1.11200
C1375       C  0.73308634  0.01265868  0.11703646     1.11100
C1376       C  0.85103728  0.99653333  0.10878375     1.11300
C1377       C  0.77715331  0.99184402  0.02081161     1.11100
O1378       O  0.77670118  0.09855633  0.49818916    -0.78500
O1379       O  0.84860733  0.10519137  0.11973375    -0.78500
O1380       O  0.88644499  0.09187511  0.03667324    -0.78500
O1381       O  0.73857250  0.09565723  0.07841493    -0.78400
O1382       O  0.77818832  0.11505650  0.11731782    -0.76100
O1383       O  0.84517350  0.10680852  0.49691910    -0.78500
O1384       O  0.73591930  0.05945734  0.02080054    -0.78400
O1385       O  0.89240271  0.06358372  0.09988939    -0.78500
Co1386     Co  0.81846302  0.06096658  0.00194877     1.51500
Co1387     Co  0.80737446  0.06841583  0.11802921     1.51700
Co1388     Co  0.86473765  0.04380420  0.05464713     1.51600
Co1389     Co  0.76377072  0.04609353  0.06709892     1.51500
O1390       O  0.81385184  0.06810584  0.05996477    -1.40400
C1391       C  0.74402739  0.08771173  0.00014525     1.11200
C1392       C  0.88234620  0.09475435  0.11810468     1.11300
C1393       C  0.87343271  0.11416059  0.01320134     1.11200
C1394       C  0.74885979  0.11961333  0.10127598     1.11200
C1395       C  0.80169006  0.31600337  0.06952922    -0.00800
C1396       C  0.55708991  0.33128286  0.32433007    -0.00800
O1397       O  0.70740698  0.16137826  0.28207700    -0.78500
O1398       O  0.73330514  0.21723394  0.14843666    -0.78500
O1399       O  0.72409323  0.14745088  0.15256004    -0.78500
O1400       O  0.70388141  0.26532589  0.23499035    -0.78400
O1401       O  0.70274973  0.16843186  0.09897925    -0.78600
O1402       O  0.72812781  0.20767091  0.22500436    -0.78500
O1403       O  0.70877314  0.27486951  0.15988028    -0.78500
O1404       O  0.72748415  0.13230478  0.23033872    -0.78500
C1405       C  0.73041506  0.13754643  0.26554866     1.11200
C1406       C  0.73429164  0.25393909  0.14431802     1.11100
C1407       C  0.72347672  0.14615706  0.11742555     1.11300
C1408       C  0.72816770  0.23947930  0.24095840     1.11100
O1409       O  0.65861230  0.23224401  0.27481438    -0.78500
O1410       O  0.63331600  0.17127670  0.12943372    -0.78500
O1411       O  0.64921512  0.11506734  0.22558681    -0.78500
O1412       O  0.63231004  0.26182992  0.16092618    -0.78400
O1413       O  0.66808268  0.23694543  0.11640252    -0.78500
O1414       O  0.63582569  0.16783425  0.25696172    -0.78500
O1415       O  0.62576880  0.25928767  0.23219178    -0.78400
O1416       O  0.64835310  0.11664046  0.15384709    -0.78500
Co1417     Co  0.68235557  0.18663906  0.24150011     1.51500
Co1418     Co  0.68336028  0.19116676  0.14269925     1.51700
Co1419     Co  0.68533697  0.13627740  0.19085248     1.51600
Co1420     Co  0.66790137  0.26071903  0.19684313     1.51500
O1421       O  0.66560852  0.19911375  0.19367698    -1.40400
C1422       C  0.63088791  0.25431829  0.26560047     1.11200
C1423       C  0.62707844  0.13553697  0.13319874     1.11300
C1424       C  0.62906628  0.13380539  0.24837340     1.11200
C1425       C  0.64004344  0.25581990  0.12783682     1.11200
O1426       O  0.74066169  0.31906562  0.34093610    -0.78500
O1427       O  0.74914044  0.27485129  0.28709574    -0.78500
O1428       O  0.77406702  0.36652035  0.26384718    -0.78500
O1429       O  0.77047686  0.22170614  0.35451412    -0.78400
O1430       O  0.75858937  0.31923791  0.22471413    -0.78600
O1431       O  0.75080561  0.26802802  0.39564053    -0.78500
O1432       O  0.77516222  0.21872563  0.27719571    -0.78500
O1433       O  0.77341342  0.37068009  0.34026786    -0.78500
C1434       C  0.74500724  0.35341136  0.35049347     1.11200
C1435       C  0.74954940  0.24288794  0.27168573     1.11100
C1436       C  0.75481888  0.35482825  0.23575164     1.11300
C1437       C  0.74932086  0.23293336  0.38282363     1.11100
O1438       O  0.82016178  0.26504481  0.38669573    -0.78500
O1439       O  0.82779507  0.32342201  0.23329377    -0.78500
O1440       O  0.84898639  0.35295273  0.34680189    -0.78500
O1441       O  0.85252842  0.22957954  0.27494699    -0.78400
O1442       O  0.81746713  0.25327357  0.23202687    -0.78500
O1443       O  0.80923125  0.33426667  0.38980560    -0.78500
O1444       O  0.85174571  0.23378774  0.34403796    -0.78400
O1445       O  0.85692575  0.34685495  0.27824580    -0.78500
Co1446     Co  0.78261853  0.29003686  0.35899558     1.51500
Co1447     Co  0.78905816  0.29930443  0.26262626     1.51700
Co1448     Co  0.81337200  0.35425165  0.30701032     1.51600
Co1449     Co  0.81241371  0.23059368  0.31278632     1.51500
O1450       O  0.81138700  0.29313805  0.31086608    -1.40400
C1451       C  0.84870262  0.24875296  0.37478850     1.11200
C1452       C  0.85426833  0.34056058  0.24550163     1.11300
C1453       C  0.84015042  0.35090562  0.38032131     1.11200
C1454       C  0.84733430  0.23422293  0.24146574     1.11200
C1455       C  0.81060330  0.07289453  0.32579218    -0.00800
C1456       C  0.55453254  0.06754733  0.07146401    -0.00800
C1457       C  0.57542111  0.09644767  0.09488074    -0.11600
C1458       C  0.59744321  0.11562280  0.11283909    -0.13200
C1459       C  0.76101062  0.11727593  0.28569709    -0.11600
C1460       C  0.78508700  0.09882733  0.30276956    -0.13200
C1461       C  0.58222595  0.29955164  0.30638466    -0.11600
C1462       C  0.60529826  0.27661012  0.29132339    -0.13200
C1463       C  0.76046990  0.27201514  0.11764076    -0.11600
C1464       C  0.77899522  0.28981850  0.09447877    -0.13200
C1465       C  0.90794146  0.11962481  0.13802851    -0.11600
C1466       C  0.92283000  0.14423915  0.15715303    -0.13200
C1467       C  0.98723027  0.22200376  0.14863321    -0.11600
C1468       C  0.96425961  0.20100154  0.16418891    -0.13200
C1469       C  0.95936611  0.15060375  0.21145359    -0.11600
C1470       C  0.98024042  0.12928967  0.22930283    -0.13200
C1471       C  0.90403014  0.19752343  0.20132843    -0.11600
C1472       C  0.87655971  0.21554195  0.21590695    -0.13200
C1473       C  0.62824951  0.38610707  0.13771919    -0.11600
C1474       C  0.65272902  0.40205136  0.15494559    -0.13200
C1475       C  0.71458569  0.48230977  0.13882398    -0.11600
C1476       C  0.69865290  0.45596077  0.15512599    -0.13200
C1477       C  0.62765915  0.47090124  0.21841522    -0.11600
C1478       C  0.65138896  0.45089999  0.20182859    -0.13200
C1479       C  0.72803631  0.38178280  0.21684280    -0.11600
C1480       C  0.70491705  0.40191066  0.20001204    -0.13200
C1481       C  0.65581469  0.12921447  0.40840895    -0.11600
C1482       C  0.63586804  0.10852561  0.39043190    -0.13200
C1483       C  0.62920958  0.19591934  0.47866044    -0.11600
C1484       C  0.65003367  0.17659738  0.45827859    -0.13200
C1485       C  0.69873411  0.12788846  0.45782282    -0.11600
C1486       C  0.71718170  0.10783184  0.47801554    -0.13200
C1487       C  0.70231015  0.18174037  0.41429054    -0.11600
C1488       C  0.72365681  0.20495829  0.39989868    -0.13200
C1489       C  0.58175381  0.36198901  0.33860264    -0.11600
C1490       C  0.60510758  0.38253887  0.35196560    -0.13200
C1491       C  0.61198029  0.03084587  0.03185230    -0.11600
C1492       C  0.58478404  0.04401374  0.05016220    -0.13200
C1493       C  0.77774405  0.33806267  0.04225443    -0.11600
C1494       C  0.76057152  0.35230210  0.01633854    -0.13200
C1495       C  0.78528158  0.05393616  0.35449470    -0.11600
C1496       C  0.76301352  0.04025597  0.37727523    -0.13200
C1497       C  0.83884423  0.09651480  0.34596436    -0.11600
C1498       C  0.86371037  0.11309361  0.36215747    -0.13200
C1499       C  0.00846024  0.10099362  0.02122664    -0.11600
C1500       C  0.53012187  0.08741733  0.04367336    -0.13200
C1501       C  0.85535180  0.28374536  0.02583254    -0.11600
C1502       C  0.82959560  0.29410891  0.04624017    -0.13200
C1503       C  0.53389328  0.31492159  0.35460544    -0.11600
C1504       C  0.00969296  0.30024744  0.37357479    -0.13200
C1505       C  0.82490048  0.34056670  0.09394544    -0.11600
C1506       C  0.84870782  0.35302413  0.11413237    -0.13200
C1507       C  0.50409506  0.02649130  0.11427962    -0.11600
C1508       C  0.52853779  0.04314642  0.09576263    -0.13200
C1509       C  0.52918047  0.34864224  0.29897783    -0.11600
C1510       C  0.50270368  0.36055332  0.28147891    -0.13200
C1511       C  0.83317869  0.04297680  0.30115131    -0.11600
C1512       C  0.85413960  0.02065554  0.28179540    -0.13200
C1513       C  0.90810652  0.47080112  0.47971182    -0.11600
C1514       C  0.91614708  0.44317375  0.45836984    -0.13200
C1515       C  0.94872073  0.42748678  0.40011644    -0.11600
C1516       C  0.97217554  0.44276883  0.38038922    -0.13200
C1517       C  0.89357362  0.38720106  0.41881614    -0.11600
C1518       C  0.86696521  0.36958254  0.40567072    -0.13200
C1519       C  0.95604362  0.38446095  0.44912456    -0.11600
C1520       C  0.98418033  0.37074351  0.46266041    -0.13200
C1521       C  0.92739531  0.41012190  0.93157280    -0.00800
O1522       O  0.87996739  0.45556355  0.77051187    -0.78500
O1523       O  0.87735973  0.40387110  0.64587207    -0.78500
O1524       O  0.88584614  0.47891524  0.65748155    -0.78500
O1525       O  0.91029893  0.34197234  0.71862878    -0.78400
O1526       O  0.90418805  0.45842965  0.60112906    -0.78600
O1527       O  0.87365090  0.39444348  0.71769328    -0.78500
O1528       O  0.90727470  0.34731162  0.64436085    -0.78500
O1529       O  0.89880075  0.50203879  0.73068528    -0.78500
C1530       C  0.87875441  0.49153333  0.75999984     1.11200
C1531       C  0.87867646  0.36823841  0.63643961     1.11100
C1532       C  0.88122840  0.47620528  0.62276471     1.11300
C1533       C  0.87924027  0.35849149  0.72302858     1.11100
O1534       O  0.94179495  0.38683515  0.76537390    -0.78500
O1535       O  0.97113101  0.46787007  0.63142671    -0.78500
O1536       O  0.97919131  0.47880986  0.71068926    -0.78500
O1537       O  0.98372897  0.37114253  0.64869550    -0.78400
O1538       O  0.94551986  0.39546478  0.60890160    -0.78500
O1539       O  0.95045301  0.45638220  0.75851352    -0.78500
O1540       O  0.98261778  0.36440315  0.72198680    -0.78400
O1541       O  0.95141558  0.52282706  0.65821740    -0.78500
Co1542     Co  0.91199863  0.42760099  0.73516762     1.51500
Co1543     Co  0.92371344  0.43506685  0.64192933     1.51700
Co1544     Co  0.93340485  0.47665969  0.68525722     1.51600
Co1545     Co  0.94627512  0.35897477  0.68340214     1.51500
O1546       O  0.93787472  0.41749637  0.69019218    -1.40400
C1547       C  0.97408701  0.37150504  0.75545859     1.11200
C1548       C  0.97413464  0.50544442  0.63515003     1.11300
C1549       C  0.97762954  0.47188566  0.74399999     1.11200
C1550       C  0.97437959  0.37713798  0.61674540     1.11200
O1551       O  0.97608876  0.25837069  0.96319577    -0.78500
O1552       O  0.99208751  0.14343131  0.91684168    -0.78500
O1553       O  0.98052228  0.15994950  0.50001057    -0.78500
O1554       O  0.98327087  0.23949437  0.87662116    -0.78400
O1555       O  0.96199387  0.10479341  0.97391056    -0.78600
O1556       O  0.95434335  0.28731122  0.91019740    -0.78500
O1557       O  0.97142472  0.16091878  0.86308385    -0.78500
O1558       O  0.96168014  0.23698080  0.51607936    -0.78500
C1559       C  0.98217217  0.25577270  0.99585530     1.11200
C1560       C  0.99305552  0.14193684  0.88249644     1.11100
C1561       C  0.98249755  0.12212406  0.99716456     1.11300
C1562       C  0.98118348  0.27486827  0.88810567     1.11100
O1563       O  0.87865211  0.24848804  0.92859765    -0.78500
O1564       O  0.89478527  0.15047010  0.96588786    -0.78500
O1565       O  0.89221629  0.23156035  0.50223547    -0.78500
O1566       O  0.89587201  0.17159693  0.87045331    -0.78400
O1567       O  0.91596693  0.11980982  0.90197523    -0.78500
O1568       O  0.90569506  0.29125101  0.98214937    -0.78500
O1569       O  0.90929063  0.25223107  0.87728392    -0.78400
O1570       O  0.91527316  0.16276554  0.51864516    -0.78500
Co1571     Co  0.92714094  0.25213067  0.94793328     1.51500
Co1572     Co  0.94429815  0.14795069  0.94241126     1.51700
Co1573     Co  0.93875651  0.19936970  0.98662183     1.51600
Co1574     Co  0.93998377  0.20583130  0.87427173     1.51500
O1575       O  0.94043163  0.20126570  0.92891147    -1.40400
C1576       C  0.87963093  0.25037829  0.89478831     1.11200
C1577       C  0.89366446  0.14504544  0.99959260     1.11300
C1578       C  0.88608116  0.26895453  0.00277192     1.11200
C1579       C  0.89328864  0.13571069  0.87935924     1.11200
O1580       O  0.65419311  0.47874971  0.50996767    -0.78500
O1581       O  0.66312341  0.41360871  0.86089015    -0.78500
O1582       O  0.63429441  0.99280609  0.93243446    -0.78500
O1583       O  0.64421233  0.41568371  0.97415780    -0.78400
O1584       O  0.66679094  0.49124844  0.88051929    -0.78600
O1585       O  0.67603732  0.40146133  0.51916526    -0.78500
O1586       O  0.62837794  0.39879180  0.90831745    -0.78500
O1587       O  0.66184999  0.03691064  0.98652185    -0.78500
C1588       C  0.64447569  0.51551569  0.00915062     1.11200
C1589       C  0.63308612  0.40024448  0.87434491     1.11100
C1590       C  0.63589760  0.49212468  0.89824078     1.11300
C1591       C  0.64712302  0.39764246  0.00229828     1.11100
O1592       O  0.74597490  0.40890173  0.48230901    -0.78500
O1593       O  0.74435652  0.47954993  0.89879947    -0.78500
O1594       O  0.72918136  0.99251539  0.98242000    -0.78500
O1595       O  0.69704948  0.35644901  0.89657016    -0.78400
O1596       O  0.73631548  0.40372112  0.89024737    -0.78500
O1597       O  0.72284919  0.45894197  0.53535398    -0.78500
O1598       O  0.71048169  0.35951941  0.97311550    -0.78400
O1599       O  0.70911675  0.02801892  0.91926428    -0.78500
Co1600     Co  0.70169727  0.44405421  0.99185938     1.51500
Co1601     Co  0.70295220  0.44695667  0.88484687     1.51700
Co1602     Co  0.68074195  0.49225314  0.95697314     1.51600
Co1603     Co  0.67005678  0.38404882  0.93865506     1.51500
O1604       O  0.69028081  0.43770137  0.93737776    -1.40400
C1605       C  0.73954808  0.37338881  0.98749636     1.11200
C1606       C  0.73820677  0.51579595  0.90049862     1.11300
C1607       C  0.74156630  0.47944638  0.01282143     1.11200
C1608       C  0.72494224  0.37114095  0.88068009     1.11200
C1609       C  0.67686962  0.15400118  0.93409334    -0.00800
C1610       C  0.67761826  0.42687743  0.67789724    -0.00800
C1611       C  0.93741387  0.17390994  0.68379953    -0.00800
O1612       O  0.57106473  0.99677250  0.89281095    -0.78500
O1613       O  0.59375101  0.07949362  0.76010230    -0.78500
O1614       O  0.60837701  0.48828909  0.77713348    -0.78500
O1615       O  0.61067345  0.08340758  0.83608935    -0.78400
O1616       O  0.57212505  0.00922841  0.73508763    -0.78600
O1617       O  0.57935676  0.07509562  0.88839590    -0.78500
O1618       O  0.57958563  0.13576399  0.78899613    -0.78500
O1619       O  0.60713103  0.48108215  0.84553426    -0.78500
C1620       C  0.60286345  0.49041903  0.87827887     1.11200
C1621       C  0.59905943  0.11596610  0.76586921     1.11100
C1622       C  0.60172306  0.99105668  0.74403811     1.11300
C1623       C  0.60817172  0.08673847  0.87080646     1.11100
O1624       O  0.50302191  0.07948931  0.86188409    -0.78500
O1625       O  0.50144312  0.02217502  0.77439651    -0.78500
O1626       O  0.53110672  0.45179267  0.84908966    -0.78500
O1627       O  0.51394202  0.10369613  0.78143895    -0.78400
O1628       O  0.52661192  0.07757459  0.72733709    -0.78500
O1629       O  0.49654132  0.00327008  0.86644182    -0.78500
O1630       O  0.54434919  0.12179829  0.84870480    -0.78400
O1631       O  0.53176506  0.46482941  0.77485481    -0.78500
Co1632     Co  0.53780529  0.03848184  0.87421163     1.51500
Co1633     Co  0.54597247  0.05042747  0.76935074     1.51700
Co1634     Co  0.56893651  0.47460196  0.81217951     1.51600
Co1635     Co  0.56395480  0.08873590  0.80837621     1.51500
O1636       O  0.55483998  0.03240813  0.82076288    -1.40400
C1637       C  0.51479994  0.11320543  0.86431164     1.11200
C1638       C  0.50436704  0.98645551  0.76658217     1.11300
C1639       C  0.50103219  0.46671027  0.86351042     1.11200
C1640       C  0.50796925  0.10281409  0.74653166     1.11200
O1641       O  0.51590941  0.37175078  0.51685473    -0.78500
O1642       O  0.53315015  0.23169230  0.60013621    -0.78500
O1643       O  0.54168358  0.26994998  0.98599628    -0.78500
O1644       O  0.49992663  0.33268941  0.57701990    -0.78400
O1645       O  0.51693560  0.27222631  0.54147711    -0.78600
O1646       O  0.52768579  0.38531188  0.58845478    -0.78500
O1647       O  0.51554941  0.28366698  0.63431903    -0.78500
O1648       O  0.54630136  0.34383017  0.96976833    -0.78500
C1649       C  0.51691030  0.36081280  0.48389007     1.11200
C1650       C  0.51343050  0.24684870  0.62741109     1.11100
C1651       C  0.51447656  0.26852944  0.50812017     1.11300
C1652       C  0.49936450  0.36636111  0.58987421     1.11100
O1653       O  0.60207304  0.38229018  0.57979886    -0.78500
O1654       O  0.57838790  0.21645911  0.51872762    -0.78500
O1655       O  0.62755837  0.33466677  0.99646681    -0.78500
O1656       O  0.58671404  0.28555449  0.61710347    -0.78400
O1657       O  0.61240708  0.25115187  0.57336170    -0.78500
O1658       O  0.58902741  0.38178962  0.50521781    -0.78500
O1659       O  0.57273670  0.34952742  0.62407540    -0.78400
O1660       O  0.61846328  0.25935373  0.00181153    -0.78500
Co1661     Co  0.55972747  0.37656986  0.54736686     1.51500
Co1662     Co  0.56326247  0.25729202  0.55711583     1.51700
Co1663     Co  0.58317760  0.30337639  0.49205034     1.51600
Co1664     Co  0.54482769  0.30666794  0.59405485     1.51500
O1665       O  0.57153407  0.31622656  0.54740666    -1.40400
C1666       C  0.59980534  0.37142489  0.61294799     1.11200
C1667       C  0.60770202  0.22452449  0.50063633     1.11300
C1668       C  0.62111336  0.36920717  0.50608332     1.11200
C1669       C  0.61320003  0.26576815  0.60414917     1.11200
O1670       O  0.86272276  0.02102696  0.99409434    -0.78500
O1671       O  0.76314223  0.02905654  0.62786529    -0.78500
O1672       O  0.84704809  0.99629018  0.57524397    -0.78500
O1673       O  0.78474138  0.99582842  0.55318886    -0.78400
O1674       O  0.83858726  0.02404511  0.62871382    -0.78600
O1675       O  0.79001009  0.01435455  0.99714907    -0.78500
O1676       O  0.72104002  0.02081815  0.58588338    -0.78500
O1677       O  0.90695955  0.01309180  0.53393469    -0.78500
C1678       C  0.89301316  0.00350810  0.50351325     1.11200
C1679       C  0.73309708  0.01265409  0.61702952     1.11100
C1680       C  0.85103379  0.99653961  0.60880574     1.11300
C1681       C  0.77716924  0.99184063  0.52077781     1.11100
O1682       O  0.77668765  0.09855893  0.99819693    -0.78500
O1683       O  0.84861727  0.10520329  0.61971708    -0.78500
O1684       O  0.88646576  0.09184738  0.53666519    -0.78500
O1685       O  0.73856511  0.09561900  0.57842607    -0.78400
O1686       O  0.77820685  0.11508017  0.61727407    -0.76100
O1687       O  0.84516581  0.10680677  0.99690494    -0.78500
O1688       O  0.73593184  0.05945336  0.52079213    -0.78400
O1689       O  0.89240934  0.06358115  0.59989502    -0.78500
Co1690     Co  0.81847685  0.06096627  0.50194259     1.51500
Co1691     Co  0.80738026  0.06843244  0.61801957     1.51700
Co1692     Co  0.86474517  0.04378780  0.55465420     1.51600
Co1693     Co  0.76378344  0.04606864  0.56708690     1.51500
O1694       O  0.81386001  0.06809493  0.55995810    -1.40400
C1695       C  0.74404073  0.08770972  0.50013860     1.11200
C1696       C  0.88235417  0.09475857  0.61810185     1.11300
C1697       C  0.87344877  0.11414611  0.51320579     1.11200
C1698       C  0.74886123  0.11960414  0.60125688     1.11200
C1699       C  0.80169500  0.31599980  0.56953108    -0.00800
C1700       C  0.55709131  0.33127779  0.82432882    -0.00800
O1701       O  0.70739347  0.16136217  0.78207344    -0.78500
O1702       O  0.73331222  0.21721612  0.64842966    -0.78500
O1703       O  0.72409347  0.14742806  0.65254836    -0.78500
O1704       O  0.70388012  0.26531699  0.73499101    -0.78400
O1705       O  0.70274929  0.16841981  0.59897082    -0.78600
O1706       O  0.72812714  0.20766123  0.72500961    -0.78500
O1707       O  0.70878771  0.27485489  0.65988174    -0.78500
O1708       O  0.72748076  0.13229270  0.73033639    -0.78500
C1709       C  0.73040428  0.13753027  0.76554839     1.11200
C1710       C  0.73430315  0.25392253  0.64431652     1.11100
C1711       C  0.72347506  0.14614042  0.61741318     1.11300
C1712       C  0.72816414  0.23946997  0.74096383     1.11100
O1713       O  0.65860521  0.23223423  0.77480751    -0.78500
O1714       O  0.63331794  0.17127161  0.62942415    -0.78500
O1715       O  0.64921116  0.11506041  0.72558121    -0.78500
O1716       O  0.63232375  0.26182783  0.66091529    -0.78400
O1717       O  0.66809660  0.23693881  0.61639407    -0.78500
O1718       O  0.63581580  0.16783130  0.75694663    -0.78500
O1719       O  0.62577011  0.25928462  0.73218171    -0.78400
O1720       O  0.64834958  0.11663466  0.65384042    -0.78500
Co1721     Co  0.68235066  0.18662997  0.74149422     1.51500
Co1722     Co  0.68336419  0.19115603  0.64269112     1.51700
Co1723     Co  0.68533529  0.13626691  0.69084588     1.51600
Co1724     Co  0.66790826  0.26071146  0.69683788     1.51500
O1725       O  0.66561273  0.19910637  0.69366865    -1.40400
C1726       C  0.63088460  0.25431266  0.76559126     1.11200
C1727       C  0.62707809  0.13553206  0.63318954     1.11300
C1728       C  0.62905892  0.13380111  0.74836355     1.11200
C1729       C  0.64006070  0.25582069  0.62782664     1.11200
O1730       O  0.74064442  0.31905093  0.84095266    -0.78500
O1731       O  0.74912895  0.27484375  0.78710563    -0.78500
O1732       O  0.77404511  0.36651708  0.76386414    -0.78500
O1733       O  0.77045656  0.22170391  0.85452941    -0.78400
O1734       O  0.75858066  0.31923379  0.72472698    -0.78600
O1735       O  0.75079600  0.26802499  0.89566090    -0.78500
O1736       O  0.77514886  0.21871701  0.77720960    -0.78500
O1737       O  0.77339066  0.37066805  0.84028643    -0.78500
C1738       C  0.74498656  0.35339661  0.85051142     1.11200
C1739       C  0.74953871  0.24288017  0.77169565     1.11100
C1740       C  0.75480275  0.35482323  0.73576555     1.11300
C1741       C  0.74930465  0.23293236  0.88284109     1.11100
O1742       O  0.82015236  0.26504561  0.88671117    -0.78500
O1743       O  0.82778814  0.32341851  0.73331121    -0.78500
O1744       O  0.84896647  0.35295622  0.84681660    -0.78500
O1745       O  0.85251319  0.22956342  0.77496493    -0.78400
O1746       O  0.81746165  0.25327069  0.73204269    -0.78500
O1747       O  0.80921763  0.33426393  0.88982261    -0.78500
O1748       O  0.85172338  0.23376897  0.84405607    -0.78400
O1749       O  0.85690437  0.34688072  0.77826028    -0.78500
Co1750     Co  0.78260660  0.29003096  0.85901262     1.51500
Co1751     Co  0.78904870  0.29929994  0.76264092     1.51700
Co1752     Co  0.81334959  0.35425145  0.80702712     1.51600
Co1753     Co  0.81239501  0.23058494  0.81280261     1.51500
O1754       O  0.81137590  0.29313310  0.81088160    -1.40400
C1755       C  0.84868715  0.24874220  0.87480297     1.11200
C1756       C  0.85425346  0.34057334  0.74551726     1.11300
C1757       C  0.84013461  0.35090669  0.88033654     1.11200
C1758       C  0.84732628  0.23421606  0.74148312     1.11200
C1759       C  0.81058686  0.07288156  0.82581162    -0.00800
C1760       C  0.55453932  0.06753700  0.57145113    -0.00800
C1761       C  0.57542549  0.09643935  0.59486819    -0.11600
C1762       C  0.59744466  0.11561759  0.61282737    -0.13200
C1763       C  0.76099492  0.11725660  0.78570427    -0.11600
C1764       C  0.78506792  0.09880933  0.80278408    -0.13200
C1765       C  0.58222613  0.29954807  0.80637910    -0.11600
C1766       C  0.60529547  0.27660606  0.79131388    -0.13200
C1767       C  0.76048143  0.27200100  0.61764041    -0.11600
C1768       C  0.77900307  0.28981050  0.59447963    -0.13200
C1769       C  0.90794657  0.11962732  0.63803404    -0.11600
C1770       C  0.92283131  0.14424192  0.65716290    -0.13200
C1771       C  0.98723823  0.22200023  0.64863696    -0.11600
C1772       C  0.96426185  0.20100551  0.66419508    -0.13200
C1773       C  0.95936879  0.15061482  0.71146426    -0.11600
C1774       C  0.98024668  0.12930635  0.72931490    -0.13200
C1775       C  0.90402939  0.19752892  0.70134041    -0.11600
C1776       C  0.87655726  0.21554207  0.71592365    -0.13200
C1777       C  0.62825176  0.38611533  0.63770362    -0.11600
C1778       C  0.65272977  0.40205621  0.65493525    -0.13200
C1779       C  0.71459957  0.48230548  0.63883103    -0.11600
C1780       C  0.69866124  0.45595825  0.65513047    -0.13200
C1781       C  0.62765409  0.47090885  0.71840411    -0.11600
C1782       C  0.65138319  0.45090345  0.70182047    -0.13200
C1783       C  0.72802047  0.38177601  0.71685286    -0.11600
C1784       C  0.70490580  0.40190568  0.70001729    -0.13200
C1785       C  0.65580334  0.12921351  0.90841544    -0.11600
C1786       C  0.63586257  0.10852387  0.89043338    -0.13200
C1787       C  0.62918973  0.19591770  0.97866822    -0.11600
C1788       C  0.65001257  0.17659368  0.95828732    -0.13200
C1789       C  0.69871688  0.12788904  0.95783321    -0.11600
C1790       C  0.71716705  0.10783316  0.97802386    -0.13200
C1791       C  0.70229104  0.18174236  0.91430498    -0.11600
C1792       C  0.72363795  0.20496050  0.89991511    -0.13200
C1793       C  0.58175304  0.36198221  0.83860672    -0.11600
C1794       C  0.60510178  0.38253293  0.85197629    -0.13200
C1795       C  0.61198867  0.03084675  0.53182922    -0.11600
C1796       C  0.58479265  0.04400989  0.55014345    -0.13200
C1797       C  0.77774805  0.33805986  0.54225611    -0.11600
C1798       C  0.76057622  0.35230201  0.51634026    -0.13200
C1799       C  0.78526926  0.05392006  0.85451704    -0.11600
C1800       C  0.76300687  0.04023392  0.87730018    -0.13200
C1801       C  0.83882731  0.09650715  0.84598047    -0.11600
C1802       C  0.86369621  0.11308792  0.86216854    -0.13200
C1803       C  0.00846541  0.10098201  0.52122453    -0.11600
C1804       C  0.53012361  0.08740740  0.54366480    -0.13200
C1805       C  0.85535752  0.28373866  0.52583591    -0.11600
C1806       C  0.82960181  0.29410638  0.54624241    -0.13200
C1807       C  0.53389399  0.31491484  0.85460157    -0.11600
C1808       C  0.00968133  0.30024831  0.87356786    -0.13200
C1809       C  0.82490336  0.34056431  0.59394869    -0.11600
C1810       C  0.84870887  0.35302308  0.61413712    -0.13200
C1811       C  0.50410963  0.02647316  0.61427173    -0.11600
C1812       C  0.52854920  0.04313053  0.59575133    -0.13200
C1813       C  0.52918232  0.34864008  0.79897937    -0.11600
C1814       C  0.50270362  0.36054965  0.78148337    -0.13200
C1815       C  0.83316604  0.04296394  0.80117454    -0.11600
C1816       C  0.85413130  0.02064512  0.78182099    -0.13200
C1817       C  0.90809513  0.47081488  0.97971057    -0.11600
C1818       C  0.91613721  0.44318486  0.95837138    -0.13200
C1819       C  0.94871293  0.42748926  0.90011923    -0.11600
C1820       C  0.97217215  0.44276678  0.88039316    -0.13200
C1821       C  0.89356241  0.38720599  0.91882423    -0.11600
C1822       C  0.86695212  0.36958554  0.90568327    -0.13200
C1823       C  0.95603489  0.38446949  0.94913005    -0.11600
C1824       C  0.98417432  0.37075239  0.96266155    -0.13200
C1825       C  0.92740667  0.91011592  0.43156829    -0.00800
O1826       O  0.87996811  0.95556570  0.27050004    -0.78500
O1827       O  0.87735867  0.90386865  0.14586143    -0.78500
O1828       O  0.88585204  0.97892162  0.15746353    -0.78500
O1829       O  0.91031274  0.84197383  0.21861414    -0.78400
O1830       O  0.90418384  0.95842357  0.10111126    -0.78600
O1831       O  0.87365555  0.89443993  0.21768404    -0.78500
O1832       O  0.90728484  0.84731469  0.14434919    -0.78500
O1833       O  0.89880484  0.00203694  0.23067010    -0.78500
C1834       C  0.87875680  0.99153459  0.25998550     1.11200
C1835       C  0.87868107  0.86823550  0.13643091     1.11100
C1836       C  0.88122777  0.97620272  0.12274774     1.11300
C1837       C  0.87925132  0.85848752  0.22301359     1.11100
O1838       O  0.94179919  0.88683886  0.26536380    -0.78500
O1839       O  0.97112181  0.96787969  0.13141445    -0.78500
O1840       O  0.97920036  0.97880091  0.21067355    -0.78500
O1841       O  0.98373715  0.87116842  0.14868620    -0.78400
O1842       O  0.94551872  0.89546979  0.10889146    -0.78500
O1843       O  0.95045387  0.95638901  0.25850037    -0.78500
O1844       O  0.98262729  0.86441856  0.22197670    -0.78400
O1845       O  0.95141521  0.02283669  0.15821520    -0.78500
Co1846     Co  0.91199926  0.92760283  0.23515747     1.51500
Co1847     Co  0.92370772  0.93506917  0.14191689     1.51700
Co1848     Co  0.93341230  0.97665999  0.18524021     1.51600
Co1849     Co  0.94628606  0.85898464  0.18339005     1.51500
O1850       O  0.93786973  0.91750084  0.19018121    -1.40400
C1851       C  0.97409299  0.87151216  0.25544936     1.11200
C1852       C  0.97412993  0.00545335  0.13514388     1.11300
C1853       C  0.97763590  0.97188218  0.24398568     1.11200
C1854       C  0.97438587  0.87715842  0.11673603     1.11200
O1855       O  0.97609634  0.75835850  0.46319993    -0.78500
O1856       O  0.99209915  0.64344778  0.41684290    -0.78500
O1857       O  0.98052121  0.65996626  0.00000889    -0.78500
O1858       O  0.98328948  0.73949640  0.37663097    -0.78400
O1859       O  0.96200244  0.60479163  0.47389959    -0.78600
O1860       O  0.95436308  0.78731521  0.41020563    -0.78500
O1861       O  0.97142927  0.66092306  0.36308586    -0.78500
O1862       O  0.96167715  0.73700162  0.01607312    -0.78500
C1863       C  0.98217745  0.75576219  0.49586007     1.11200
C1864       C  0.99306174  0.64194426  0.38249820     1.11100
C1865       C  0.98249888  0.62212218  0.49715984     1.11300
C1866       C  0.98120329  0.77487087  0.38811489     1.11100
O1867       O  0.87866086  0.74851085  0.42858788    -0.78500
O1868       O  0.89479578  0.65046211  0.46588713    -0.78500
O1869       O  0.89221464  0.73157297  0.00222736    -0.78500
O1870       O  0.89588201  0.67161146  0.37045001    -0.78400
O1871       O  0.91597893  0.61982148  0.40196909    -0.78500
O1872       O  0.90570724  0.79125502  0.48215284    -0.78500
O1873       O  0.90931205  0.75224676  0.37728088    -0.78400
O1874       O  0.91527018  0.66278347  0.01864487    -0.78500
Co1875     Co  0.92714816  0.75213586  0.44793324     1.51500
Co1876     Co  0.94430830  0.64795606  0.44241102     1.51700
Co1877     Co  0.93875431  0.69937150  0.48662299     1.51600
Co1878     Co  0.93999669  0.70584039  0.37427279     1.51500
O1879       O  0.94042879  0.70126926  0.42891199    -1.40400
C1880       C  0.87964779  0.75040005  0.39477791     1.11200
C1881       C  0.89367456  0.64503763  0.49959219     1.11300
C1882       C  0.88608643  0.76896045  0.50277078     1.11200
C1883       C  0.89330030  0.63572393  0.37935375     1.11200
O1884       O  0.65418303  0.97875751  0.00999213    -0.78500
O1885       O  0.66311820  0.91363138  0.36086782    -0.78500
O1886       O  0.63430760  0.49280593  0.43242467    -0.78500
O1887       O  0.64420449  0.91568023  0.47413492    -0.78400
O1888       O  0.66677602  0.99127156  0.38051789    -0.78600
O1889       O  0.67602556  0.90146693  0.01919396    -0.78500
O1890       O  0.62838544  0.89879377  0.40829693    -0.78500
O1891       O  0.66186653  0.53690703  0.48651043    -0.78500
C1892       C  0.64447079  0.01552069  0.50914302     1.11200
C1893       C  0.63308752  0.90025402  0.37432475     1.11100
C1894       C  0.63588571  0.99213834  0.39824355     1.11300
C1895       C  0.64711499  0.89764572  0.50227893     1.11100
O1896       O  0.74595703  0.90889993  0.98232925    -0.78500
O1897       O  0.74434666  0.97957240  0.39878369    -0.78500
O1898       O  0.72919857  0.49251390  0.48239805    -0.78500
O1899       O  0.69706852  0.85647087  0.39654684    -0.78400
O1900       O  0.73631917  0.90375614  0.39020332    -0.78500
O1901       O  0.72283689  0.95894243  0.03537642    -0.78500
O1902       O  0.71048745  0.85953049  0.47310095    -0.78400
O1903       O  0.70912736  0.52802718  0.41925009    -0.78500
Co1904     Co  0.70169045  0.94406481  0.49184568     1.51500
Co1905     Co  0.70294334  0.94698271  0.38482752     1.51700
Co1906     Co  0.68074277  0.99226540  0.45696648     1.51600
Co1907     Co  0.67006579  0.88405824  0.43863389     1.51500
O1908       O  0.69028219  0.93771456  0.43736089    -1.40400
C1909       C  0.73954960  0.87340219  0.48748837     1.11200
C1910       C  0.73819936  0.01581745  0.40048772     1.11300
C1911       C  0.74156221  0.97945062  0.51281400     1.11200
C1912       C  0.72495409  0.87116904  0.38064829     1.11200
C1913       C  0.67688896  0.65400383  0.43408151    -0.00800
C1914       C  0.67761009  0.92687841  0.17790342    -0.00800
C1915       C  0.93741434  0.67391048  0.18379102    -0.00800
O1916       O  0.57107236  0.49677960  0.39280957    -0.78500
O1917       O  0.59376139  0.57949114  0.26010183    -0.78500
O1918       O  0.60836481  0.98828457  0.27714313    -0.78500
O1919       O  0.61067591  0.58341448  0.33608219    -0.78400
O1920       O  0.57214044  0.50922247  0.23508319    -0.78600
O1921       O  0.57936153  0.57510396  0.38838953    -0.78500
O1922       O  0.57958083  0.63576334  0.28898665    -0.78500
O1923       O  0.60711404  0.98108105  0.34554297    -0.78500
C1924       C  0.60284870  0.99042248  0.37828667     1.11200
C1925       C  0.59906397  0.61596537  0.26586788     1.11100
C1926       C  0.60173596  0.49104823  0.24403717     1.11300
C1927       C  0.60817574  0.58674762  0.37079912     1.11100
O1928       O  0.50302451  0.57948823  0.36187688    -0.78500
O1929       O  0.50145358  0.52216891  0.27438318    -0.78500
O1930       O  0.53108941  0.95179598  0.34909494    -0.78500
O1931       O  0.51394259  0.60368371  0.28143048    -0.78400
O1932       O  0.52662597  0.57756907  0.22732810    -0.78500
O1933       O  0.49654845  0.50327135  0.36644232    -0.78500
O1934       O  0.54434762  0.62179956  0.34869492    -0.78400
O1935       O  0.53175277  0.96482544  0.27485806    -0.78500
Co1936     Co  0.53781137  0.53848530  0.37420745     1.51500
Co1937     Co  0.54598362  0.55042231  0.26934351     1.51700
Co1938     Co  0.56892128  0.97460045  0.31218648     1.51600
Co1939     Co  0.56395551  0.58873414  0.30836895     1.51500
O1940       O  0.55484571  0.53240563  0.32075809    -1.40400
C1941       C  0.51480011  0.61320510  0.36430403     1.11200
C1942       C  0.50437682  0.48644950  0.26656899     1.11300
C1943       C  0.50101706  0.96671480  0.36351855     1.11200
C1944       C  0.50797529  0.60280283  0.24652236     1.11200
O1945       O  0.51590356  0.87176210  0.01686701    -0.78500
O1946       O  0.53312968  0.73169376  0.10013541    -0.78500
O1947       O  0.54168147  0.76993972  0.48599782    -0.78500
O1948       O  0.49991420  0.83269723  0.07702815    -0.78400
O1949       O  0.51692244  0.77224075  0.04147551    -0.78600
O1950       O  0.52768050  0.88531426  0.08846701    -0.78500
O1951       O  0.51552892  0.78366451  0.13432453    -0.78500
O1952       O  0.54628929  0.84382532  0.46977212    -0.78500
C1953       C  0.51690525  0.86082633  0.98390176     1.11200
C1954       C  0.51341128  0.74684688  0.12741225     1.11100
C1955       C  0.51446741  0.76854404  0.00811802     1.11300
C1956       C  0.49935505  0.86637097  0.08987785     1.11100
O1957       O  0.60206395  0.88228587  0.07981834    -0.78500
O1958       O  0.57837243  0.71646715  0.01872891    -0.78500
O1959       O  0.62754478  0.83467366  0.49645927    -0.78500
O1960       O  0.58669367  0.78554654  0.11711802    -0.78400
O1961       O  0.61238774  0.75114848  0.07337381    -0.78500
O1962       O  0.58902009  0.88179175  0.00523624    -0.78500
O1963       O  0.57272230  0.84952279  0.12409179    -0.78400
O1964       O  0.61846753  0.75935920  0.50180048    -0.78500
Co1965     Co  0.55972048  0.87657336  0.04738255     1.51500
Co1966     Co  0.56324553  0.75729574  0.05712048     1.51700
Co1967     Co  0.58317155  0.80338685  0.99206267     1.51600
Co1968     Co  0.54481161  0.80666856  0.09406580     1.51500
O1969       O  0.57152272  0.81622989  0.04741981    -1.40400
C1970       C  0.59979307  0.87141903  0.11296687     1.11200
C1971       C  0.60768930  0.72453314  0.00064237     1.11300
C1972       C  0.62110575  0.86921216  0.00610669     1.11200
C1973       C  0.61317973  0.76576114  0.10416347     1.11200
O1974       O  0.86273432  0.52102482  0.49409520    -0.78500
O1975       O  0.76313624  0.52905868  0.12786499    -0.78500
O1976       O  0.84704427  0.49630089  0.07523509    -0.78500
O1977       O  0.78473572  0.49584228  0.05319583    -0.78400
O1978       O  0.83857879  0.52404484  0.12870983    -0.78600
O1979       O  0.79002467  0.51435435  0.49713058    -0.78500
O1980       O  0.72103136  0.52083093  0.08588457    -0.78500
O1981       O  0.90695174  0.51311050  0.03392627    -0.78500
C1982       C  0.89300224  0.50352649  0.00350650     1.11200
C1983       C  0.73309028  0.51265950  0.11702831     1.11100
C1984       C  0.85102692  0.49654388  0.10879744     1.11300
C1985       C  0.77716671  0.49185315  0.02078438     1.11100
O1986       O  0.77669838  0.59855607  0.49819155    -0.78500
O1987       O  0.84861255  0.60520259  0.11972734    -0.78500
O1988       O  0.88645693  0.59186699  0.03666873    -0.78500
O1989       O  0.73856137  0.59563363  0.07842901    -0.78400
O1990       O  0.77820115  0.61508216  0.11728542    -0.76100
O1991       O  0.84517240  0.60680791  0.49691186    -0.78500
O1992       O  0.73592478  0.55946232  0.02079474    -0.78400
O1993       O  0.89240362  0.56358482  0.09989306    -0.78500
Co1994     Co  0.81846589  0.56098655  0.00194791     1.51500
Co1995     Co  0.80737399  0.56843447  0.11802421     1.51700
Co1996     Co  0.86473812  0.54380272  0.05465136     1.51600
Co1997     Co  0.76377648  0.54608233  0.06709062     1.51500
O1998       O  0.81385342  0.56810827  0.05996308    -1.40400
C1999       C  0.74403057  0.58772512  0.00014789     1.11200
C2000       C  0.88234979  0.59475908  0.11810440     1.11300
C2001       C  0.87343998  0.61416679  0.01321002     1.11200
C2002       C  0.74885823  0.61961311  0.10126456     1.11200
C2003       C  0.80169290  0.81599487  0.06953205    -0.00800
C2004       C  0.55708728  0.83127627  0.32432979    -0.00800
O2005       O  0.70740425  0.66136978  0.28207889    -0.78500
O2006       O  0.73330749  0.71722368  0.14843831    -0.78500
O2007       O  0.72409522  0.64743910  0.15255554    -0.78500
O2008       O  0.70388560  0.76532009  0.23499192    -0.78400
O2009       O  0.70274629  0.66842824  0.09897904    -0.78600
O2010       O  0.72813048  0.70766371  0.22500978    -0.78500
O2011       O  0.70877916  0.77486111  0.15988137    -0.78500
O2012       O  0.72748737  0.63230004  0.23034043    -0.78500
C2013       C  0.73041455  0.63753946  0.26555148     1.11200
C2014       C  0.73429651  0.75392858  0.14431958     1.11100
C2015       C  0.72347452  0.64615071  0.11742075     1.11300
C2016       C  0.72817114  0.73947318  0.24096150     1.11100
O2017       O  0.65861420  0.73223888  0.27481652    -0.78500
O2018       O  0.63331653  0.67127204  0.12943590    -0.78500
O2019       O  0.64921976  0.61506292  0.22558780    -0.78500
O2020       O  0.63231351  0.76182903  0.16092824    -0.78400
O2021       O  0.66808368  0.73694161  0.11640452    -0.78500
O2022       O  0.63582390  0.66783086  0.25695875    -0.78500
O2023       O  0.62577351  0.75928650  0.23219379    -0.78400
O2024       O  0.64835587  0.61663508  0.15384709    -0.78500
Co2025     Co  0.68235599  0.68663357  0.24150170     1.51500
Co2026     Co  0.68336102  0.69116088  0.14270051     1.51700
Co2027     Co  0.68534035  0.63627200  0.19085249     1.51600
Co2028     Co  0.66790612  0.76071469  0.19684456     1.51500
O2029       O  0.66561186  0.69910923  0.19367793    -1.40400
C2030       C  0.63089095  0.75431485  0.26560256     1.11200
C2031       C  0.62708137  0.63553139  0.13319815     1.11300
C2032       C  0.62906679  0.63380148  0.24837039     1.11200
C2033       C  0.64004514  0.75581757  0.12783877     1.11200
O2034       O  0.74066221  0.81906760  0.34093661    -0.78500
O2035       O  0.74914282  0.77484884  0.28709701    -0.78500
O2036       O  0.77406552  0.86652387  0.26384831    -0.78500
O2037       O  0.77048473  0.72170634  0.35451428    -0.78400
O2038       O  0.75858348  0.81924148  0.22471701    -0.78600
O2039       O  0.75080990  0.76802798  0.39563955    -0.78500
O2040       O  0.77516847  0.71872466  0.27719674    -0.78500
O2041       O  0.77341638  0.87068102  0.34026735    -0.78500
C2042       C  0.74500807  0.85341429  0.35049085     1.11200
C2043       C  0.74955369  0.74288499  0.27168763     1.11100
C2044       C  0.75481391  0.85483191  0.23575480     1.11300
C2045       C  0.74932773  0.73293266  0.38282362     1.11100
O2046       O  0.82016512  0.76504771  0.38669267    -0.78500
O2047       O  0.82779043  0.82343035  0.23329166    -0.78500
O2048       O  0.84898927  0.85295346  0.34680025    -0.78500
O2049       O  0.85253234  0.72958813  0.27494358    -0.78400
O2050       O  0.81746672  0.75327930  0.23202520    -0.78500
O2051       O  0.80923300  0.83426952  0.38980403    -0.78500
O2052       O  0.85175326  0.73379826  0.34403336    -0.78400
O2053       O  0.85692744  0.84685434  0.27824322    -0.78500
Co2054     Co  0.78262059  0.79003931  0.35899416     1.51500
Co2055     Co  0.78905636  0.79930794  0.26262602     1.51700
Co2056     Co  0.81337416  0.85425372  0.30700918     1.51600
Co2057     Co  0.81242008  0.73059766  0.31278483     1.51500
O2058       O  0.81138755  0.79314149  0.31086425    -1.40400
C2059       C  0.84870872  0.74876258  0.37478377     1.11200
C2060       C  0.85426771  0.84056297  0.24549880     1.11300
C2061       C  0.84015246  0.85090796  0.38031970     1.11200
C2062       C  0.84733550  0.73423064  0.24146273     1.11200
C2063       C  0.81060174  0.57289371  0.32580403    -0.00800
C2064       C  0.55454435  0.56754132  0.07145191    -0.00800
C2065       C  0.57543136  0.59644116  0.09487089    -0.11600
C2066       C  0.59745007  0.61561614  0.11283365    -0.13200
C2067       C  0.76100855  0.61726925  0.28570298    -0.11600
C2068       C  0.78508379  0.59882262  0.30277900    -0.13200
C2069       C  0.58222564  0.79954514  0.30638662    -0.11600
C2070       C  0.60529971  0.77660498  0.29132573    -0.13200
C2071       C  0.76047653  0.77200234  0.11764269    -0.11600
C2072       C  0.77900194  0.78980582  0.09448093    -0.13200
C2073       C  0.90794566  0.61962703  0.13803073    -0.11600
C2074       C  0.92283308  0.64424214  0.15715566    -0.13200
C2075       C  0.98722973  0.72201011  0.14863131    -0.11600
C2076       C  0.96425992  0.70100774  0.16418800    -0.13200
C2077       C  0.95936627  0.65061583  0.21145853    -0.11600
C2078       C  0.98023970  0.62930460  0.22931148    -0.13200
C2079       C  0.90403014  0.69753105  0.20132558    -0.11600
C2080       C  0.87655973  0.71555004  0.21590306    -0.13200
C2081       C  0.62823858  0.88610802  0.13772384    -0.11600
C2082       C  0.65271816  0.90205150  0.15495095    -0.13200
C2083       C  0.71457867  0.98230518  0.13882481    -0.11600
C2084       C  0.69864392  0.95595805  0.15512751    -0.13200
C2085       C  0.62764883  0.97090860  0.21841477    -0.11600
C2086       C  0.65137861  0.95090475  0.20183034    -0.13200
C2087       C  0.72802837  0.88178630  0.21684836    -0.11600
C2088       C  0.70490702  0.90191283  0.20001828    -0.13200
C2089       C  0.65581618  0.62921928  0.40840459    -0.11600
C2090       C  0.63586965  0.60853271  0.39042463    -0.13200
C2091       C  0.62920935  0.69592476  0.47865639    -0.11600
C2092       C  0.65003460  0.67660206  0.45827563    -0.13200
C2093       C  0.69873212  0.62788755  0.45782328    -0.11600
C2094       C  0.71717834  0.60782972  0.47801691    -0.13200
C2095       C  0.70231580  0.68174027  0.41429090    -0.11600
C2096       C  0.72366419  0.70495676  0.39989902    -0.13200
C2097       C  0.58174889  0.86198577  0.33859989    -0.11600
C2098       C  0.60510089  0.88254000  0.35195998    -0.13200
C2099       C  0.61199355  0.53084370  0.03183563    -0.11600
C2100       C  0.58479711  0.54401055  0.05014694    -0.13200
C2101       C  0.77774143  0.83805587  0.04226332    -0.11600
C2102       C  0.76056335  0.85229811  0.01635248    -0.13200
C2103       C  0.78528308  0.55393489  0.35450884    -0.11600
C2104       C  0.76301797  0.54025012  0.37728942    -0.13200
C2105       C  0.83884331  0.59651794  0.34597196    -0.11600
C2106       C  0.86371049  0.61310030  0.36216067    -0.13200
C2107       C  0.00845733  0.60099873  0.02122947    -0.11600
C2108       C  0.53012939  0.58741219  0.04366447    -0.13200
C2109       C  0.85535580  0.78374810  0.02582904    -0.11600
C2110       C  0.82959858  0.79410649  0.04623778    -0.13200
C2111       C  0.53388973  0.81491695  0.35460604    -0.11600
C2112       C  0.00969893  0.80025214  0.37357452    -0.13200
C2113       C  0.82490378  0.84055703  0.09394846    -0.11600
C2114       C  0.84871272  0.85301464  0.11413325    -0.13200
C2115       C  0.50410992  0.52648483  0.11427052    -0.11600
C2116       C  0.52855206  0.54313831  0.09575124    -0.13200
C2117       C  0.52917831  0.84863260  0.29897587    -0.11600
C2118       C  0.50270157  0.86054407  0.28147738    -0.13200
C2119       C  0.83317613  0.54297405  0.30116567    -0.11600
C2120       C  0.85413533  0.52065102  0.28181056    -0.13200
C2121       C  0.90810828  0.97079864  0.47971682    -0.11600
C2122       C  0.91614977  0.94317265  0.45837328    -0.13200
C2123       C  0.94872324  0.92748939  0.40011797    -0.11600
C2124       C  0.97218022  0.94276943  0.38039177    -0.13200
C2125       C  0.89357460  0.88720430  0.41881488    -0.11600
C2126       C  0.86696648  0.86958584  0.40566908    -0.13200
C2127       C  0.95604443  0.88445809  0.44912050    -0.11600
C2128       C  0.98418202  0.87073743  0.46265178    -0.13200
C2129       C  0.92741128  0.91012736  0.93156959    -0.00800
O2130       O  0.87997695  0.95556231  0.77051714    -0.78500
O2131       O  0.87736396  0.90387485  0.64587440    -0.78500
O2132       O  0.88583880  0.97891346  0.65748886    -0.78500
O2133       O  0.91029584  0.84198231  0.71862683    -0.78400
O2134       O  0.90418614  0.95843754  0.60113537    -0.78600
O2135       O  0.87366147  0.89446275  0.71768439    -0.78500
O2136       O  0.90727578  0.84731497  0.64435707    -0.78500
O2137       O  0.89879647  0.00204445  0.73069314    -0.78500
C2138       C  0.87875487  0.99153277  0.76000817     1.11200
C2139       C  0.87867864  0.86824369  0.63643747     1.11100
C2140       C  0.88122289  0.97620765  0.62277155     1.11300
C2141       C  0.87924181  0.85851168  0.72302617     1.11100
O2142       O  0.94179956  0.88683619  0.76537102    -0.78500
O2143       O  0.97113528  0.96787023  0.63142686    -0.78500
O2144       O  0.97918572  0.97882878  0.71069074    -0.78500
O2145       O  0.98373176  0.87113309  0.64868970    -0.78400
O2146       O  0.94552409  0.89547048  0.60890042    -0.78500
O2147       O  0.95046552  0.95638402  0.75851692    -0.78500
O2148       O  0.98261957  0.86439883  0.72198387    -0.78400
O2149       O  0.95141290  0.02282641  0.65821131    -0.78500
Co2150     Co  0.91201033  0.92760901  0.73516690     1.51500
Co2151     Co  0.92371841  0.93507105  0.64193082     1.51700
Co2152     Co  0.93339769  0.97666742  0.68526371     1.51600
Co2153     Co  0.94627570  0.85897555  0.68339926     1.51500
O2154       O  0.93788770  0.91750143  0.69019014    -1.40400
C2155       C  0.97409010  0.87150292  0.75545561     1.11200
C2156       C  0.97413627  0.00544415  0.63514830     1.11300
C2157       C  0.97763450  0.97189757  0.74399989     1.11200
C2158       C  0.97438323  0.87713964  0.61674066     1.11200
O2159       O  0.97609862  0.75836418  0.96319277    -0.78500
O2160       O  0.99209178  0.64344089  0.91684354    -0.78500
O2161       O  0.98051534  0.65995974  0.50001139    -0.78500
O2162       O  0.98328554  0.73949680  0.87662689    -0.78400
O2163       O  0.96199748  0.60479721  0.97390798    -0.78600
O2164       O  0.95435854  0.78731647  0.91020017    -0.78500
O2165       O  0.97142829  0.66092279  0.86308521    -0.78500
O2166       O  0.96167454  0.73699114  0.51607894    -0.78500
C2167       C  0.98217797  0.75577450  0.99585322     1.11200
C2168       C  0.99305661  0.64194002  0.88249880     1.11100
C2169       C  0.98249922  0.62212844  0.99716327     1.11300
C2170       C  0.98119878  0.77487149  0.88810991     1.11100
O2171       O  0.87866293  0.74850785  0.92859058    -0.78500
O2172       O  0.89479187  0.65047208  0.96589346    -0.78500
O2173       O  0.89221208  0.73157469  0.50223042    -0.78500
O2174       O  0.89587997  0.67160913  0.87044854    -0.78400
O2175       O  0.91597051  0.61982140  0.90197459    -0.78500
O2176       O  0.90570621  0.79125492  0.98215256    -0.78500
O2177       O  0.90930794  0.75224347  0.87727907    -0.78400
O2178       O  0.91526354  0.66277698  0.51864225    -0.78500
Co2179     Co  0.92714955  0.75213702  0.94793109     1.51500
Co2180     Co  0.94430286  0.64795745  0.94241329     1.51700
Co2181     Co  0.93875985  0.69937589  0.98662104     1.51600
Co2182     Co  0.93999436  0.70583904  0.87427101     1.51500
O2183       O  0.94043065  0.70127030  0.92891049    -1.40400
C2184       C  0.87964633  0.75039864  0.89478100     1.11200
C2185       C  0.89367392  0.64504880  0.99959893     1.11300
C2186       C  0.88608639  0.76895794  0.00276951     1.11200
C2187       C  0.89329509  0.63572288  0.87935571     1.11200
O2188       O  0.65418675  0.97875926  0.50995550    -0.78500
O2189       O  0.66311415  0.91360924  0.86090763    -0.78500
O2190       O  0.63430669  0.49280368  0.93241796    -0.78500
O2191       O  0.64420314  0.91568857  0.97417148    -0.78400
O2192       O  0.66677978  0.99124900  0.88053670    -0.78600
O2193       O  0.67603479  0.90147467  0.51915683    -0.78500
O2194       O  0.62836750  0.89878983  0.90833291    -0.78500
O2195       O  0.66186227  0.53690938  0.98650277    -0.78500
C2196       C  0.64446207  0.01551723  0.00916883     1.11200
C2197       C  0.63307662  0.90024365  0.87436058     1.11100
C2198       C  0.63588579  0.99212539  0.89825687     1.11300
C2199       C  0.64710779  0.89764607  0.00231162     1.11100
O2200       O  0.74596979  0.90891274  0.48229741    -0.78500
O2201       O  0.74434535  0.97955003  0.89882159    -0.78500
O2202       O  0.72919503  0.49251660  0.98239475    -0.78500
O2203       O  0.69704166  0.85644830  0.89658604    -0.78400
O2204       O  0.73630540  0.90372242  0.89027024    -0.78500
O2205       O  0.72284357  0.95895369  0.53534156    -0.78500
O2206       O  0.71047005  0.85951974  0.97313340    -0.78400
O2207       O  0.70912732  0.52801802  0.91924468    -0.78500
Co2208     Co  0.70168195  0.94405489  0.99188118     1.51500
Co2209     Co  0.70294171  0.94695751  0.88486685     1.51700
Co2210     Co  0.68072962  0.99225440  0.95699290     1.51600
Co2211     Co  0.67004661  0.88404868  0.93867129     1.51500
O2212       O  0.69026881  0.93770248  0.93739750    -1.40400
C2213       C  0.73953545  0.87338895  0.98751620     1.11200
C2214       C  0.73819583  0.01579591  0.90051794     1.11300
C2215       C  0.74154982  0.97944397  0.01284808     1.11200
C2216       C  0.72493460  0.87114309  0.88069813     1.11200
C2217       C  0.67688005  0.65401523  0.93408970    -0.00800
C2218       C  0.67760880  0.92688663  0.67790251    -0.00800
C2219       C  0.93741397  0.67391845  0.68379504    -0.00800
O2220       O  0.57107740  0.49677144  0.89279832    -0.78500
O2221       O  0.59376912  0.57950086  0.76010264    -0.78500
O2222       O  0.60836433  0.98828273  0.77714397    -0.78500
O2223       O  0.61068601  0.58341073  0.83609247    -0.78400
O2224       O  0.57213952  0.50923620  0.73507761    -0.78600
O2225       O  0.57936516  0.57509741  0.88839560    -0.78500
O2226       O  0.57960375  0.63576949  0.78900088    -0.78500
O2227       O  0.60711903  0.98108132  0.84554828    -0.78500
C2228       C  0.60285121  0.99041878  0.87829320     1.11200
C2229       C  0.59907744  0.61597334  0.76587281     1.11100
C2230       C  0.60173569  0.49106074  0.74402779     1.11300
C2231       C  0.60818123  0.58674249  0.87080913     1.11100
O2232       O  0.50303059  0.57948804  0.86187879    -0.78500
O2233       O  0.50145839  0.52218544  0.77438602    -0.78500
O2234       O  0.53109277  0.95179239  0.84910195    -0.78500
O2235       O  0.51395899  0.60370210  0.78143647    -0.78400
O2236       O  0.52663216  0.57758636  0.72733246    -0.78500
O2237       O  0.49655422  0.50326940  0.86642828    -0.78500
O2238       O  0.54435645  0.62180073  0.84870604    -0.78400
O2239       O  0.53175400  0.96482154  0.77486548    -0.78500
Co2240     Co  0.53781641  0.53848158  0.87420395     1.51500
Co2241     Co  0.54598973  0.55043512  0.76934446     1.51700
Co2242     Co  0.56892412  0.97459804  0.81219146     1.51600
Co2243     Co  0.56396959  0.58874103  0.80837644     1.51500
O2244       O  0.55485342  0.53241201  0.82075589    -1.40400
C2245       C  0.51480487  0.61320553  0.86430807     1.11200
C2246       C  0.50437840  0.48646511  0.76657448     1.11300
C2247       C  0.50101831  0.96671074  0.86352225     1.11200
C2248       C  0.50798632  0.60282137  0.74652923     1.11200
O2249       O  0.51590515  0.87175318  0.51686837    -0.78500
O2250       O  0.53314379  0.73168515  0.60013502    -0.78500
O2251       O  0.54167775  0.76994727  0.98599857    -0.78500
O2252       O  0.49992304  0.83268203  0.57702969    -0.78400
O2253       O  0.51693202  0.77222569  0.54147757    -0.78600
O2254       O  0.52768436  0.88530147  0.58847001    -0.78500
O2255       O  0.51554792  0.78365644  0.63432468    -0.78500
O2256       O  0.54628676  0.84382909  0.96977240    -0.78500
C2257       C  0.51690731  0.86081977  0.48390232     1.11200
C2258       C  0.51342638  0.74683948  0.62741262     1.11100
C2259       C  0.51447380  0.76853100  0.50812062     1.11300
C2260       C  0.49936173  0.86635339  0.58988435     1.11100
O2261       O  0.60206971  0.88228349  0.57981311    -0.78500
O2262       O  0.57838503  0.71646078  0.51872324    -0.78500
O2263       O  0.62754565  0.83467211  0.99646776    -0.78500
O2264       O  0.58671178  0.78554354  0.61710611    -0.78400
O2265       O  0.61240238  0.75114136  0.57336258    -0.78500
O2266       O  0.58902339  0.88179974  0.50523380    -0.78500
O2267       O  0.57273477  0.84951581  0.62408720    -0.78400
O2268       O  0.61846011  0.75936242  0.00181249    -0.78500
Co2269     Co  0.55972408  0.87656732  0.54738143     1.51500
Co2270     Co  0.56325799  0.75728810  0.55711692     1.51700
Co2271     Co  0.58317450  0.80338293  0.49205759     1.51600
Co2272     Co  0.54482505  0.80665989  0.59406183     1.51500
O2273       O  0.57153095  0.81622407  0.54741458    -1.40400
C2274       C  0.59980183  0.87141644  0.61296151     1.11200
C2275       C  0.60769969  0.72452843  0.50063339     1.11300
C2276       C  0.62110960  0.86921674  0.50609308     1.11200
C2277       C  0.61319722  0.76575884  0.60414997     1.11200
O2278       O  0.86272476  0.52104321  0.99409459    -0.78500
O2279       O  0.76315293  0.52905156  0.62786757    -0.78500
O2280       O  0.84705616  0.49629260  0.57523692    -0.78500
O2281       O  0.78474129  0.49583087  0.55320030    -0.78400
O2282       O  0.83859758  0.52404559  0.62870790    -0.78600
O2283       O  0.79001540  0.51437630  0.99712886    -0.78500
O2284       O  0.72104205  0.52082721  0.58589207    -0.78500
O2285       O  0.90696322  0.51309955  0.53392578    -0.78500
C2286       C  0.89301291  0.50351159  0.50350740     1.11200
C2287       C  0.73310456  0.51265426  0.61703412     1.11100
C2288       C  0.85104210  0.49654053  0.60879867     1.11300
C2289       C  0.77716990  0.49183901  0.52078954     1.11100
O2290       O  0.77668932  0.59857775  0.99820460    -0.78500
O2291       O  0.84862209  0.60520410  0.61971541    -0.78500
O2292       O  0.88646450  0.59185516  0.53666086    -0.78500
O2293       O  0.73857338  0.59562858  0.57842376    -0.78400
O2294       O  0.77821069  0.61507527  0.61728302    -0.76100
O2295       O  0.84516378  0.60682961  0.99692409    -0.78500
O2296       O  0.73593119  0.55945183  0.52079517    -0.78400
O2297       O  0.89241575  0.56358622  0.59988860    -0.78500
Co2298     Co  0.81847484  0.56096583  0.50194285     1.51500
Co2299     Co  0.80738752  0.56843040  0.61802000     1.51700
Co2300     Co  0.86474894  0.54379302  0.55464904     1.51600
Co2301     Co  0.76378598  0.54607455  0.56709075     1.51500
O2302       O  0.81386334  0.56809787  0.55995792    -1.40400
C2303       C  0.74403830  0.58770817  0.50014063     1.11200
C2304       C  0.88235969  0.59476268  0.61809677     1.11300
C2305       C  0.87344599  0.61415081  0.51319977     1.11200
C2306       C  0.74886919  0.61960752  0.60126034     1.11200
C2307       C  0.80169423  0.81601538  0.56952419    -0.00800
C2308       C  0.55708674  0.83127726  0.82433305    -0.00800
O2309       O  0.70740797  0.66137899  0.78207222    -0.78500
O2310       O  0.73332044  0.71722840  0.64842657    -0.78500
O2311       O  0.72410513  0.64744119  0.65254845    -0.78500
O2312       O  0.70388554  0.76533385  0.73498677    -0.78400
O2313       O  0.70276207  0.66842764  0.59896898    -0.78600
O2314       O  0.72813735  0.70767960  0.72500889    -0.78500
O2315       O  0.70879057  0.77486521  0.65987567    -0.78500
O2316       O  0.72749457  0.63230892  0.73033484    -0.78500
C2317       C  0.73041835  0.63754705  0.76554652     1.11200
C2318       C  0.73430776  0.75393457  0.64431126     1.11100
C2319       C  0.72348631  0.64614885  0.61741356     1.11300
C2320       C  0.72817162  0.73948975  0.74096135     1.11100
O2321       O  0.65861317  0.73224748  0.77480605    -0.78500
O2322       O  0.63333042  0.67127259  0.62942127    -0.78500
O2323       O  0.64922771  0.61506940  0.72558362    -0.78500
O2324       O  0.63232842  0.76182869  0.66091310    -0.78400
O2325       O  0.66810166  0.73694287  0.61639059    -0.78500
O2326       O  0.63583010  0.66784102  0.75694747    -0.78500
O2327       O  0.62577600  0.75929451  0.73218005    -0.78400
O2328       O  0.64836281  0.61663856  0.65384199    -0.78500
Co2329     Co  0.68236270  0.68664398  0.74149352     1.51500
Co2330     Co  0.68337486  0.69116327  0.64268883     1.51700
Co2331     Co  0.68534857  0.63627670  0.69084596     1.51600
Co2332     Co  0.66791354  0.76072075  0.69683426     1.51500
O2333       O  0.66562275  0.69911500  0.69366715    -1.40400
C2334       C  0.63089043  0.75432319  0.76558989     1.11200
C2335       C  0.62709123  0.63553310  0.63318883     1.11300
C2336       C  0.62907568  0.63380929  0.74836611     1.11200
C2337       C  0.64006308  0.75581842  0.62782396     1.11200
O2338       O  0.74064500  0.81906100  0.84096132    -0.78500
O2339       O  0.74913317  0.77486899  0.78710207    -0.78500
O2340       O  0.77403561  0.86654353  0.76387158    -0.78500
O2341       O  0.77047437  0.72172154  0.85452365    -0.78400
O2342       O  0.75858669  0.81925993  0.72472728    -0.78600
O2343       O  0.75081384  0.76803415  0.89566278    -0.78500
O2344       O  0.77516167  0.71874586  0.77720462    -0.78500
O2345       O  0.77338013  0.87068531  0.84029961    -0.78500
C2346       C  0.74498056  0.85340605  0.85052530     1.11200
C2347       C  0.74954732  0.74290475  0.77169222     1.11100
C2348       C  0.75480012  0.85484726  0.73576980     1.11300
C2349       C  0.74932334  0.73294348  0.88283839     1.11100
O2350       O  0.82016927  0.76506954  0.88670442    -0.78500
O2351       O  0.82779508  0.82343814  0.73331519    -0.78500
O2352       O  0.84896144  0.85299408  0.84681753    -0.78500
O2353       O  0.85252694  0.72960181  0.77495624    -0.78400
O2354       O  0.81746684  0.75329718  0.73203690    -0.78500
O2355       O  0.80922514  0.83428031  0.88982567    -0.78500
O2356       O  0.85174083  0.73380120  0.84404491    -0.78400
O2357       O  0.85689242  0.84694270  0.77826020    -0.78500
Co2358     Co  0.78261641  0.79004855  0.85901247     1.51500
Co2359     Co  0.78905432  0.79932509  0.76264028     1.51700
Co2360     Co  0.81333983  0.85428556  0.80703279     1.51600
Co2361     Co  0.81240993  0.73061490  0.81279548     1.51500
O2362       O  0.81138250  0.79316293  0.81088027    -1.40400
C2363       C  0.84870447  0.74877010  0.87479346     1.11200
C2364       C  0.85425115  0.84060947  0.74551979     1.11300
C2365       C  0.84013809  0.85093007  0.88033811     1.11200
C2366       C  0.84733407  0.73424526  0.74147463     1.11200
C2367       C  0.81059877  0.57289166  0.82580281    -0.00800
C2368       C  0.55454655  0.56753616  0.57145417    -0.00800
C2369       C  0.57543604  0.59643894  0.59486919    -0.11600
C2370       C  0.59745735  0.61561643  0.61282740    -0.13200
C2371       C  0.76100843  0.61727244  0.78570093    -0.11600
C2372       C  0.78508077  0.59882218  0.80277817    -0.13200
C2373       C  0.58222521  0.79955062  0.80638111    -0.11600
C2374       C  0.60529767  0.77661301  0.79131335    -0.13200
C2375       C  0.76048381  0.77201397  0.61763367    -0.11600
C2376       C  0.77900369  0.78982434  0.59447219    -0.13200
C2377       C  0.90795117  0.61963460  0.63802700    -0.11600
C2378       C  0.92283286  0.64425152  0.65715602    -0.13200
C2379       C  0.98724221  0.72200868  0.64863661    -0.11600
C2380       C  0.96426588  0.70101273  0.66419360    -0.13200
C2381       C  0.95936318  0.65061870  0.71146192    -0.11600
C2382       C  0.98023449  0.62930384  0.72931431    -0.13200
C2383       C  0.90402972  0.69754209  0.70133265    -0.11600
C2384       C  0.87656029  0.71556242  0.71591424    -0.13200
C2385       C  0.62824538  0.88611093  0.63771773    -0.11600
C2386       C  0.65272157  0.90205882  0.65494591    -0.13200
C2387       C  0.71458893  0.98231020  0.63882963    -0.11600
C2388       C  0.69864908  0.95596587  0.65513167    -0.13200
C2389       C  0.62764423  0.97091223  0.71841298    -0.11600
C2390       C  0.65137422  0.95091176  0.70182612    -0.13200
C2391       C  0.72801504  0.88179524  0.71685822    -0.11600
C2392       C  0.70489858  0.90192095  0.70002277    -0.13200
C2393       C  0.65581183  0.62922477  0.90841486    -0.11600
C2394       C  0.63586980  0.60853163  0.89043701    -0.13200
C2395       C  0.62919693  0.69593048  0.97866380    -0.11600
C2396       C  0.65002285  0.67661062  0.95828201    -0.13200
C2397       C  0.69872426  0.62790374  0.95783290    -0.11600
C2398       C  0.71717106  0.60784707  0.97802589    -0.13200
C2399       C  0.70230556  0.68175275  0.91429912    -0.11600
C2400       C  0.72365600  0.70496859  0.89990946    -0.13200
C2401       C  0.58174615  0.86198132  0.83861686    -0.11600
C2402       C  0.60509337  0.88253183  0.85198997    -0.13200
C2403       C  0.61199314  0.53083739  0.53183693    -0.11600
C2404       C  0.58479770  0.54400419  0.55014918    -0.13200
C2405       C  0.77774581  0.83807544  0.54224961    -0.11600
C2406       C  0.76057264  0.85231594  0.51633345    -0.13200
C2407       C  0.78528124  0.55392715  0.85450544    -0.11600
C2408       C  0.76301861  0.54023671  0.87728530    -0.13200
C2409       C  0.83883851  0.59651625  0.84597322    -0.11600
C2410       C  0.86370500  0.61309928  0.86216257    -0.13200
C2411       C  0.00845856  0.60099153  0.52122387    -0.11600
C2412       C  0.53013057  0.58740358  0.54366545    -0.13200
C2413       C  0.85535751  0.78375617  0.52582908    -0.11600
C2414       C  0.82960109  0.79412350  0.54623467    -0.13200
C2415       C  0.53388505  0.81491146  0.85460210    -0.11600
C2416       C  0.00969546  0.80025125  0.87357124    -0.13200
C2417       C  0.82490345  0.84057812  0.59394310    -0.11600
C2418       C  0.84870999  0.85303291  0.61413292    -0.13200
C2419       C  0.50411429  0.52647745  0.61427471    -0.11600
C2420       C  0.52855551  0.54313325  0.59575577    -0.13200
C2421       C  0.52917955  0.84864157  0.79898277    -0.11600
C2422       C  0.50270025  0.86055052  0.78148718    -0.13200
C2423       C  0.83317580  0.54297478  0.80116394    -0.11600
C2424       C  0.85413691  0.52065242  0.78181022    -0.13200
C2425       C  0.90810833  0.97081605  0.97971052    -0.11600
C2426       C  0.91615446  0.94318917  0.95836936    -0.13200
C2427       C  0.94872838  0.92749355  0.90011478    -0.11600
C2428       C  0.97218675  0.94276867  0.88038580    -0.13200
C2429       C  0.89357608  0.88721448  0.91882306    -0.11600
C2430       C  0.86696166  0.86959948  0.90568417    -0.13200
C2431       C  0.95605037  0.88447378  0.94912588    -0.11600
C2432       C  0.98418938  0.87075634  0.96265772    -0.13200
loop_ 
_geom_bond_atom_site_label_1 
_geom_bond_atom_site_label_2 
_geom_bond_distance 
_geom_bond_site_symmetry_2 
_ccdc_geom_bond_type 
C1          C298   1.523       .  S
C1          C299   1.502       .  S
C1          C301   1.552       .  S
C1          C303   1.501       .  S
O2           C10   1.291       .  A
O2          Co22   1.931       .  S
O3           C11   1.259       .  A
O3          Co23   2.014       .  S
O4           C12   1.288       .  A
O4          Co24   2.024       .  S
O5           C13   1.246       .  A
O5          Co25   1.908       .  S
O6           C12   1.264       .  A
O6          Co23   1.850       .  S
O7           C13   1.257       .  A
O7          Co22   1.934       .  S
O8           C11   1.282       .  A
O8          Co25   2.081       .  S
O9           C10   1.333       .  A
O9          Co24   2.200       .  S
C10         C904   1.516       .  S
C11         C290   1.479       .  S
C12         C768   1.390       .  S
C13         C236   1.365       .  S
O14          C27   1.303       .  A
O14         Co22   2.084       .  S
O15          C28   1.296       .  A
O15         Co23   2.103       .  S
O16          C29   1.243       .  A
O16         Co24   1.926       .  S
O17          C30   1.244       .  A
O17         Co25   1.884       .  S
O18          C30   1.243       .  A
O18         Co23   1.934       .  S
O19          C29   1.237       .  A
O19         Co22   1.939       .  S
O20          C27   1.271       .  A
O20         Co25   1.968       .  S
O21          C28   1.285       .  A
O21         Co24   1.986       .  S
Co22         O26   1.888       .  S
Co23         O26   1.950       .  S
Co24         O26   2.032       .  S
Co25         O26   2.023       .  S
C27        C1510   1.471       .  S
C28        C2115   1.509       .  S
C29        C1942   1.390       .  S
C30        C1348   1.352       .  S
O31          C39   1.225       .  A
O31         Co51   1.889       .  S
O32          C40   1.255       .  A
O32         Co52   1.938       .  S
O33         C345   1.294   1_554  A
O33        Co357   2.066   1_554  S
O34          C42   1.273       .  A
O34         Co54   1.972       .  S
O35          C41   1.294       .  A
O35         Co52   1.985       .  S
O36          C42   1.300       .  A
O36         Co51   2.083       .  S
O37          C40   1.246       .  A
O37         Co54   1.913       .  S
O38         C343   1.229   1_554  A
O38        Co357   1.892   1_554  S
C39         O342   1.229       .  A
C39        C1651   1.346       .  S
C40        C1333   1.388       .  S
C41         O337   1.294       .  A
C41         C587   1.484       .  S
C42         C288   1.457       .  S
O43          C56   1.238       .  A
O43         Co51   1.917       .  S
O44          C57   1.248       .  A
O44         Co52   1.959       .  S
O45         C362   1.289       .  A
O45        Co357   2.043   1_554  S
O46          C59   1.277       .  A
O46         Co54   2.012       .  S
O47          C59   1.295       .  A
O47         Co52   2.068       .  S
O48          C58   1.289       .  A
O48         Co51   1.945       .  S
O49          C56   1.234       .  A
O49         Co54   1.906       .  S
O50         C361   1.230   1_554  A
O50        Co357   1.920   1_554  S
Co51         O55   1.905       .  S
Co52         O55   1.894       .  S
Co53        O337   2.066       .  S
Co53        O342   1.892       .  S
Co53        O349   2.043       .  S
Co53        O354   1.920       .  S
Co53         O55   2.110       .  S
Co54         O55   2.006       .  S
C56         C235   1.357       .  S
C57         O354   1.230       .  A
C57         C481   1.389       .  S
C58         O349   1.289       .  A
C58         C589   1.447       .  S
C59         C282   1.488       .  S
O60         C372   1.294       .  A
O60        Co384   2.139   1_554  S
O61          C69   1.276       .  A
O61         Co81   2.071       .  S
O62         C678   1.249       .  A
O62        Co690   1.928       .  S
O63          C71   1.212       .  A
O63         Co83   1.884       .  S
O64          C70   1.272       .  A
O64         Co81   1.980       .  S
O65         C375   1.240       .  A
O65        Co384   2.007   1_554  S
O66          C69   1.250       .  A
O66         Co83   1.956       .  S
O67         C676   1.274       .  A
O67        Co690   1.950   1_545  S
C68         O364   1.294       .  A
C68         O675   1.274       .  A
C68        C1187   1.493       .  S
C69         C274   1.461       .  S
C70         O670   1.249       .  A
C70         C100   1.421       .  S
C71         O369   1.240       .  A
C71         C452   1.376       .  S
O72         C389   1.257       .  A
O72        Co384   1.990       .  S
O73          C86   1.251       .  A
O73         Co81   1.967       .  S
O74         C695   1.292       .  A
O74        Co690   2.008       .  S
O75          C88   1.267       .  A
O75         Co83   2.005       .  S
O76          C88   1.247       .  A
O76         Co81   1.894       .  S
O77         C391   1.278       .  A
O77        Co384   1.858   1_554  S
O78          C85   1.289       .  A
O78         Co83   2.120       .  S
O79         C694   1.292       .  A
O79        Co690   2.115   1_545  S
Co80        O364   2.139       .  S
Co80        O369   2.007       .  S
Co80        O376   1.990       .  S
Co80        O381   1.858       .  S
Co80         O84   2.057       .  S
Co81         O84   1.991       .  S
Co82        O670   1.928       .  S
Co82        O675   1.950       .  S
Co82        O682   2.008       .  S
Co82        O687   2.115       .  S
Co82         O84   2.003       .  S
Co83         O84   1.993       .  S
C85         O376   1.257       .  A
C85         C582   1.498       .  S
C86         O687   1.292       .  A
C86         C888   1.495       .  S
C87         O682   1.292       .  A
C87         O381   1.278       .  A
C87        C1073   1.404       .  S
C88         C218   1.419       .  S
C89         C265   1.497       .  S
C89         C268   1.484       .  S
C89         C269   1.481       .  S
C89         C271   1.514       .  S
C90         C258   1.519       .  S
C90         C260   1.511       .  S
C90         C262   1.490       .  S
C90         C264   1.540       .  S
C91         C250   1.514       .  S
C91         C252   1.528       .  S
C91         C253   1.523       .  S
C91         C255   1.548       .  S
O92         C708   1.261       .  A
O92        Co112   1.977   1_565  S
O93         C101   1.281       .  A
O93        Co113   2.038       .  S
O94         C710   1.246       .  A
O94        Co114   1.957       .  S
O95         C103   1.273       .  A
O95        Co115   2.001       .  S
O96         C102   1.274   1_545  A
O96        Co113   2.059       .  S
O97         C103   1.282       .  A
O97        Co112   2.057       .  S
O98         C101   1.259       .  A
O98        Co115   1.859       .  S
O99         C100   1.238       .  A
O99        Co114   1.887       .  S
C100        O700   1.261       .  A
C101        C208   1.400       .  S
C102        O702   1.246       .  A
C102        C869   1.455       .  S
C103        C266   1.465       .  S
O104        C117   1.242       .  A
O104       Co112   1.921       .  S
O105        C118   1.249   1_545  A
O105       Co113   1.906       .  S
O106        C119   1.281       .  A
O106       Co114   2.066       .  S
O107        C120   1.301       .  A
O107       Co115   2.137       .  S
O108        C120   1.268       .  A
O108       Co113   1.943       .  S
O109        C727   1.256   1_645  A
O109       Co112   1.968   1_655  S
O110        C117   1.239       .  A
O110       Co115   1.947       .  S
O111        C726   1.264       .  A
O111       Co114   1.977       .  S
Co112       O116   2.036       .  S
Co113       O116   2.017       .  S
Co114       O724   2.041       .  S
Co115       O116   2.015       .  S
O116       Co722   2.041   1_545  S
C117       C1256   1.388   1_455  S
C118        O719   1.264       .  A
C118       C1853   1.390   1_455  S
C119        O717   1.256   1_455  A
C119       C1516   1.469   1_455  S
C120       C1470   1.490   1_455  S
O121        C129   1.256   1_554  A
O121       Co141   1.975       .  S
O122        C130   1.300       .  A
O122       Co142   2.098       .  S
O123        C435   1.255       .  A
O123       Co447   1.928       .  S
O124        C132   1.236       .  A
O124       Co144   1.950   1_655  S
O125        C131   1.231       .  A
O125       Co142   1.846       .  S
O126        C132   1.227   1_455  A
O126       Co141   1.882       .  S
O127        C130   1.284       .  A
O127       Co144   1.970       .  S
O128        C433   1.285       .  A
O128       Co447   2.082       .  S
C129        O432   1.285       .  A
C129       C1824   1.469   1_455  S
C130       C1467   1.495   1_455  S
C131        O427   1.255   1_554  A
C131       C1559   1.346   1_454  S
C132       C1246   1.352       .  S
O133        C146   1.273       .  A
O133       Co141   1.978       .  S
O134        C147   1.270       .  A
O134       Co142   2.017       .  S
O135        C452   1.240       .  A
O135       Co447   1.963       .  S
O136        C149   1.233       .  A
O136       Co144   1.885       .  S
O137        C149   1.227       .  A
O137       Co142   1.897       .  S
O138        C148   1.226       .  A
O138       Co141   1.855       .  S
O139        C146   1.307       .  A
O139       Co144   2.117       .  S
O140        C451   1.263       .  A
O140       Co447   1.985       .  S
Co141       O145   2.091       .  S
Co142       O145   2.076       .  S
Co143       O427   1.928       .  S
Co143       O432   2.082       .  S
Co143       O439   1.963       .  S
Co143       O444   1.985   1_556  S
Co143       O145   2.092   1_556  S
Co144       O145   1.968       .  S
C146        C257   1.485       .  S
C147        O444   1.263       .  A
C147        C571   1.448   1_554  S
C148        O439   1.240   1_554  A
C148        C375   1.376       .  S
C149        C209   1.360       .  S
O150        C462   1.290       .  A
O150       Co474   2.081       .  S
O151        C159   1.307       .  A
O151       Co171   2.144       .  S
O152        C160   1.240       .  A
O152       Co172   1.915   1_565  S
O153        C161   1.231       .  A
O153       Co173   1.910   1_565  S
O154        C160   1.245   1_545  A
O154       Co171   1.914       .  S
O155        C465   1.252   1_545  A
O155       Co474   1.929       .  S
O156        C159   1.263       .  A
O156       Co173   1.905       .  S
O157        C158   1.278       .  A
O157       Co172   1.952       .  S
C158        O454   1.290   1_554  A
C158       C1209   1.487   1_544  S
C159        C867   1.478   1_545  S
C160        C620   1.390       .  S
C161        O459   1.252   1_564  A
C161        C999   1.404       .  S
O162        C479   1.248       .  A
O162       Co474   1.961       .  S
O163        C176   1.259       .  A
O163       Co171   1.979       .  S
O164        C177   1.248       .  A
O164       Co172   1.952       .  S
O165        C178   1.235       .  A
O165       Co173   1.931       .  S
O166        C178   1.234       .  A
O166       Co171   1.884       .  S
O167        C481   1.229       .  A
O167       Co474   1.871       .  S
O168        C175   1.268       .  A
O168       Co173   2.046       .  S
O169        C176   1.285       .  A
O169       Co172   2.076       .  S
Co170       O454   2.081   1_554  S
Co170       O459   1.929   1_554  S
Co170       O466   1.961   1_554  S
Co170       O471   1.871   1_554  S
Co170       O174   2.132       .  S
Co171       O174   2.128       .  S
Co172       O174   1.997       .  S
Co173       O174   1.991       .  S
C175        O466   1.248   1_554  A
C175        C574   1.447   1_554  S
C176        C249   1.477       .  S
C177        O471   1.229   1_554  A
C177        C361   1.389   1_554  S
C178        C191   1.383       .  S
C179        C248   1.523       .  S
C179        C277   1.531       .  S
C179        C286   1.478       .  S
C179        C289   1.508       .  S
C180        C245   1.521       .  S
C180        C273   1.496       .  S
C180        C287   1.491       .  S
C180        C293   1.505       .  S
O181        C189   1.278       .  A
O181       Co201   1.958       .  S
O182        C190   1.265       .  A
O182       Co202   2.051       .  S
O183        C191   1.286       .  A
O183       Co203   1.997       .  S
O184        C192   1.252       .  A
O184       Co204   1.945       .  S
O185        C191   1.267       .  A
O185       Co202   1.874       .  S
O186        C192   1.226       .  A
O186       Co201   1.906       .  S
O187        C190   1.265       .  A
O187       Co204   2.043       .  S
O188        C189   1.305       .  A
O188       Co203   2.134       .  S
C189        C243   1.504       .  S
C190        C247   1.489       .  S
C192        C219   1.389       .  S
O193        C206   1.292       .  A
O193       Co201   2.109       .  S
O194        C207   1.256       .  A
O194       Co202   2.022       .  S
O195        C208   1.246       .  A
O195       Co203   1.953       .  S
O196        C209   1.246       .  A
O196       Co204   1.867       .  S
O197        C209   1.242       .  A
O197       Co202   1.921       .  S
O198        C208   1.233       .  A
O198       Co201   1.890       .  S
O199        C206   1.254       .  A
O199       Co204   1.967       .  S
O200        C207   1.264       .  A
O200       Co203   2.052       .  S
Co201       O205   1.917       .  S
Co202       O205   1.964       .  S
Co203       O205   2.240       .  S
Co204       O205   2.109       .  S
C206        C246   1.484       .  S
C207        C242   1.498       .  S
O210        C218   1.235       .  A
O210       Co230   1.926       .  S
O211        C219   1.221       .  A
O211       Co231   1.894       .  S
O212        C220   1.323       .  A
O212       Co232   2.193       .  S
O213        C221   1.313       .  A
O213       Co233   2.146       .  S
O214        C220   1.277       .  A
O214       Co231   1.916       .  S
O215        C221   1.284       .  A
O215       Co230   1.913       .  S
O216        C219   1.244       .  A
O216       Co233   1.949       .  S
O217        C218   1.248       .  A
O217       Co232   1.923       .  S
C220        C263   1.506       .  S
C221        C272   1.481       .  S
O222        C235   1.222       .  A
O222       Co230   1.906       .  S
O223        C236   1.229       .  A
O223       Co231   1.945       .  S
O224        C237   1.260       .  A
O224       Co232   1.973       .  S
O225        C238   1.255       .  A
O225       Co233   1.971       .  S
O226        C238   1.302       .  A
O226       Co231   2.135       .  S
O227        C237   1.307       .  A
O227       Co230   2.141       .  S
O228        C235   1.229       .  A
O228       Co233   1.857       .  S
O229        C236   1.221       .  A
O229       Co232   1.874       .  S
Co230       O234   2.020       .  S
Co231       O234   1.974       .  S
Co232       O234   2.096       .  S
Co233       O234   2.136       .  S
C237        C302   1.511       .  S
C238        C256   1.509       .  S
C239        C244   1.537       .  S
C239        C279   1.532       .  S
C239        C281   1.522       .  S
C239        C295   1.549       .  S
C240        C241   1.530       .  S
C240        C276   1.525       .  S
C240        C284   1.520       .  S
C240        C292   1.542       .  S
C241        C242   1.243       .  T
C243        C244   1.247       .  T
C245        C246   1.238       .  T
C247        C248   1.239       .  T
C249        C250   1.233       .  T
C251       C1346   1.495       .  S
C251        C252   1.242       .  T
C253        C254   1.239       .  T
C254       C1336   1.490       .  S
C255        C256   1.253       .  T
C257        C258   1.237       .  T
C259        C767   1.478       .  S
C259        C260   1.232       .  T
C261        C710   1.455       .  S
C261        C262   1.221       .  T
C263        C264   1.248       .  T
C265        C266   1.224       .  T
C267        C451   1.448       .  S
C267        C268   1.216       .  T
C269        C270   1.215       .  T
C270        C479   1.447       .  S
C271        C272   1.233       .  T
C273        C274   1.223       .  T
C275        C980   1.493       .  S
C275        C276   1.241       .  T
C277        C278   1.245       .  T
C278        C389   1.498   1_554  S
C279        C280   1.244       .  T
C280        C694   1.495       .  S
C281        C282   1.239       .  T
C283        C345   1.484   1_554  S
C283       C1500   1.237       .  T
C284       C1499   1.237       .  T
C285        C362   1.447       .  S
C285        C286   1.215       .  T
C287       C1504   1.222       .  T
C288       C1503   1.222       .  T
C289        C290   1.233       .  T
C291       C1852   1.509   1_455  S
C291        C292   1.250       .  T
C293        C294   1.230       .  T
C294       C1243   1.471   1_455  S
C295        C296   1.254       .  T
C296        C618   1.516   1_545  S
C297       C1070   1.487       .  S
C297        C298   1.238       .  T
C299        C300   1.228       .  T
C300       C1335   1.469       .  S
C301        C302   1.255       .  T
C303        C304   1.228       .  T
C304       C1649   1.469       .  S
C305        C602   1.523       .  S
C305        C603   1.502       .  S
C305        C605   1.552       .  S
C305        C607   1.501       .  S
O306        C314   1.291       .  A
O306       Co326   1.931       .  S
O307        C315   1.259       .  A
O307       Co327   2.014       .  S
O308        C316   1.288       .  A
O308       Co328   2.024       .  S
O309        C317   1.246       .  A
O309       Co329   1.908       .  S
O310        C316   1.264       .  A
O310       Co327   1.850       .  S
O311        C317   1.257       .  A
O311       Co326   1.934       .  S
O312        C315   1.282       .  A
O312       Co329   2.081       .  S
O313        C314   1.333       .  A
O313       Co328   2.200       .  S
C314       C1208   1.516       .  S
C315        C594   1.479       .  S
C316       C1072   1.390       .  S
C317        C540   1.365       .  S
O318        C331   1.303       .  A
O318       Co326   2.084       .  S
O319        C332   1.296       .  A
O319       Co327   2.102       .  S
O320        C333   1.243       .  A
O320       Co328   1.926       .  S
O321        C334   1.244       .  A
O321       Co329   1.885       .  S
O322        C334   1.243       .  A
O322       Co327   1.934       .  S
O323        C333   1.237       .  A
O323       Co326   1.939       .  S
O324        C331   1.271       .  A
O324       Co329   1.968       .  S
O325        C332   1.285       .  A
O325       Co328   1.986       .  S
Co326       O330   1.888       .  S
Co327       O330   1.949       .  S
Co328       O330   2.032       .  S
Co329       O330   2.023       .  S
C331       C1814   1.471       .  S
C332       C2419   1.509       .  S
C333       C2246   1.390       .  S
C334       C1652   1.352       .  S
O335        C343   1.225       .  A
O335       Co355   1.889       .  S
O336        C344   1.255       .  A
O336       Co356   1.938       .  S
O338        C346   1.273       .  A
O338       Co358   1.972       .  S
O339        C345   1.294       .  A
O339       Co356   1.985       .  S
O340        C346   1.300       .  A
O340       Co355   2.083       .  S
O341        C344   1.246       .  A
O341       Co358   1.913       .  S
C343       C1347   1.346   1_556  S
C344       C1637   1.388       .  S
C346        C592   1.457       .  S
O347        C360   1.238       .  A
O347       Co355   1.917       .  S
O348        C361   1.248       .  A
O348       Co356   1.959       .  S
O350        C363   1.277       .  A
O350       Co358   2.012       .  S
O351        C363   1.295       .  A
O351       Co356   2.068       .  S
O352        C362   1.289   1_556  A
O352       Co355   1.945       .  S
O353        C360   1.234       .  A
O353       Co358   1.906       .  S
Co355       O359   1.905       .  S
Co356       O359   1.894       .  S
Co357       O359   2.110       .  S
Co358       O359   2.006       .  S
C360        C539   1.357       .  S
C363        C586   1.488       .  S
O365        C373   1.276       .  A
O365       Co385   2.071       .  S
O366        C982   1.249       .  A
O366       Co994   1.928       .  S
O367        C375   1.212   1_556  A
O367       Co387   1.884       .  S
O368        C374   1.272       .  A
O368       Co385   1.980       .  S
O370        C373   1.250       .  A
O370       Co387   1.956       .  S
O371        C980   1.274   1_556  A
O371       Co994   1.950   1_545  S
C372        O979   1.274   1_554  A
C372        C883   1.493       .  S
C373        C578   1.461       .  S
C374        O974   1.249       .  A
C374        C404   1.421       .  S
O377        C390   1.251       .  A
O377       Co385   1.967       .  S
O378        C999   1.292   1_556  A
O378       Co994   2.008       .  S
O379        C392   1.267       .  A
O379       Co387   2.005       .  S
O380        C392   1.247       .  A
O380       Co385   1.894       .  S
O382        C389   1.289       .  A
O382       Co387   2.120       .  S
O383        C998   1.292       .  A
O383       Co994   2.115   1_545  S
Co384       O388   2.057       .  S
Co385       O388   1.991       .  S
Co386       O974   1.928       .  S
Co386       O979   1.950       .  S
Co386       O986   2.009       .  S
Co386       O991   2.115       .  S
Co386       O388   2.003       .  S
Co387       O388   1.993       .  S
C390        O991   1.292       .  A
C390       C1192   1.495       .  S
C391        O986   1.292   1_554  A
C391        C769   1.404       .  S
C392        C522   1.419       .  S
C393        C569   1.497       .  S
C393        C572   1.484       .  S
C393        C573   1.481       .  S
C393        C575   1.514       .  S
C394        C562   1.519       .  S
C394        C564   1.511       .  S
C394        C566   1.490       .  S
C394        C568   1.540       .  S
C395        C554   1.514       .  S
C395        C556   1.529       .  S
C395        C557   1.523       .  S
C395        C559   1.548       .  S
O396       C1012   1.261       .  A
O396       Co416   1.977   1_565  S
O397        C405   1.281       .  A
O397       Co417   2.038       .  S
O398       C1014   1.246       .  A
O398       Co418   1.957       .  S
O399        C407   1.273       .  A
O399       Co419   2.001       .  S
O400        C406   1.274   1_545  A
O400       Co417   2.059       .  S
O401        C407   1.282       .  A
O401       Co416   2.057       .  S
O402        C405   1.259       .  A
O402       Co419   1.859       .  S
O403        C404   1.238       .  A
O403       Co418   1.887       .  S
C404       O1004   1.261       .  A
C405        C512   1.400       .  S
C406       O1006   1.246       .  A
C406       C1173   1.455       .  S
C407        C570   1.465       .  S
O408        C421   1.242       .  A
O408       Co416   1.921       .  S
O409        C422   1.249   1_545  A
O409       Co417   1.906       .  S
O410        C423   1.281       .  A
O410       Co418   2.066       .  S
O411        C424   1.301       .  A
O411       Co419   2.137       .  S
O412        C424   1.268       .  A
O412       Co417   1.942       .  S
O413       C1031   1.256   1_645  A
O413       Co416   1.968   1_655  S
O414        C421   1.239       .  A
O414       Co419   1.948       .  S
O415       C1030   1.264       .  A
O415       Co418   1.977       .  S
Co416       O420   2.036       .  S
Co417       O420   2.017       .  S
Co418      O1028   2.041       .  S
Co419       O420   2.015       .  S
O420      Co1026   2.041   1_545  S
C421       C1560   1.388   1_455  S
C422       O1023   1.264       .  A
C422       C2157   1.390   1_455  S
C423       O1021   1.256   1_455  A
C423       C1820   1.469   1_455  S
C424       C1774   1.490   1_455  S
O425        C433   1.256       .  A
O425       Co445   1.975       .  S
O426        C434   1.300       .  A
O426       Co446   2.098       .  S
O428        C436   1.236       .  A
O428       Co448   1.950   1_655  S
O429        C435   1.231       .  A
O429       Co446   1.846       .  S
O430        C436   1.227   1_455  A
O430       Co445   1.882       .  S
O431        C434   1.284       .  A
O431       Co448   1.970       .  S
C433       C1520   1.469   1_455  S
C434       C1771   1.495   1_455  S
C435       C1255   1.346   1_455  S
C436       C1550   1.352       .  S
O437        C450   1.273       .  A
O437       Co445   1.978       .  S
O438        C451   1.270       .  A
O438       Co446   2.017       .  S
O440        C453   1.233       .  A
O440       Co448   1.885       .  S
O441        C453   1.227       .  A
O441       Co446   1.897       .  S
O442        C452   1.226       .  A
O442       Co445   1.855       .  S
O443        C450   1.307       .  A
O443       Co448   2.117       .  S
Co445       O449   2.091       .  S
Co446       O449   2.076       .  S
Co447       O449   2.092       .  S
Co448       O449   1.968       .  S
C450        C561   1.485       .  S
C453        C513   1.359       .  S
O455        C463   1.307       .  A
O455       Co475   2.144       .  S
O456        C464   1.240       .  A
O456       Co476   1.915   1_565  S
O457        C465   1.231       .  A
O457       Co477   1.910   1_565  S
O458        C464   1.245   1_545  A
O458       Co475   1.914       .  S
O460        C463   1.263       .  A
O460       Co477   1.905       .  S
O461        C462   1.278       .  A
O461       Co476   1.952       .  S
C462        C905   1.487   1_545  S
C463       C1171   1.478   1_545  S
C464        C924   1.390       .  S
C465        C695   1.404       .  S
O467        C480   1.259       .  A
O467       Co475   1.979       .  S
O468        C481   1.248       .  A
O468       Co476   1.952       .  S
O469        C482   1.235       .  A
O469       Co477   1.931       .  S
O470        C482   1.234       .  A
O470       Co475   1.884       .  S
O472        C479   1.268       .  A
O472       Co477   2.046       .  S
O473        C480   1.285       .  A
O473       Co476   2.076       .  S
Co474       O478   2.132       .  S
Co475       O478   2.128       .  S
Co476       O478   1.997       .  S
Co477       O478   1.991       .  S
C480        C553   1.477       .  S
C482        C495   1.383       .  S
C483        C552   1.523       .  S
C483        C581   1.532       .  S
C483        C590   1.478       .  S
C483        C593   1.508       .  S
C484        C549   1.521       .  S
C484        C577   1.496       .  S
C484        C591   1.491       .  S
C484        C597   1.505       .  S
O485        C493   1.278       .  A
O485       Co505   1.958       .  S
O486        C494   1.265       .  A
O486       Co506   2.051       .  S
O487        C495   1.286       .  A
O487       Co507   1.997       .  S
O488        C496   1.252       .  A
O488       Co508   1.945       .  S
O489        C495   1.267       .  A
O489       Co506   1.874       .  S
O490        C496   1.226       .  A
O490       Co505   1.906       .  S
O491        C494   1.265       .  A
O491       Co508   2.043       .  S
O492        C493   1.305       .  A
O492       Co507   2.134       .  S
C493        C547   1.504       .  S
C494        C551   1.489       .  S
C496        C523   1.389       .  S
O497        C510   1.292       .  A
O497       Co505   2.109       .  S
O498        C511   1.256       .  A
O498       Co506   2.022       .  S
O499        C512   1.246       .  A
O499       Co507   1.953       .  S
O500        C513   1.246       .  A
O500       Co508   1.867       .  S
O501        C513   1.242       .  A
O501       Co506   1.921       .  S
O502        C512   1.233       .  A
O502       Co505   1.890       .  S
O503        C510   1.254       .  A
O503       Co508   1.967       .  S
O504        C511   1.264       .  A
O504       Co507   2.052       .  S
Co505       O509   1.917       .  S
Co506       O509   1.964       .  S
Co507       O509   2.240       .  S
Co508       O509   2.109       .  S
C510        C550   1.484       .  S
C511        C546   1.498       .  S
O514        C522   1.235       .  A
O514       Co534   1.926       .  S
O515        C523   1.221       .  A
O515       Co535   1.894       .  S
O516        C524   1.323       .  A
O516       Co536   2.192       .  S
O517        C525   1.313       .  A
O517       Co537   2.146       .  S
O518        C524   1.277       .  A
O518       Co535   1.916       .  S
O519        C525   1.284       .  A
O519       Co534   1.913       .  S
O520        C523   1.244       .  A
O520       Co537   1.949       .  S
O521        C522   1.248       .  A
O521       Co536   1.923       .  S
C524        C567   1.506       .  S
C525        C576   1.481       .  S
O526        C539   1.222       .  A
O526       Co534   1.906       .  S
O527        C540   1.229       .  A
O527       Co535   1.945       .  S
O528        C541   1.260       .  A
O528       Co536   1.973       .  S
O529        C542   1.255       .  A
O529       Co537   1.971       .  S
O530        C542   1.302       .  A
O530       Co535   2.136       .  S
O531        C541   1.307       .  A
O531       Co534   2.141       .  S
O532        C539   1.229       .  A
O532       Co537   1.856       .  S
O533        C540   1.221       .  A
O533       Co536   1.874       .  S
Co534       O538   2.020       .  S
Co535       O538   1.974       .  S
Co536       O538   2.096       .  S
Co537       O538   2.137       .  S
C541        C606   1.511       .  S
C542        C560   1.509       .  S
C543        C548   1.537       .  S
C543        C583   1.532       .  S
C543        C585   1.522       .  S
C543        C599   1.549       .  S
C544        C545   1.530       .  S
C544        C580   1.525       .  S
C544        C588   1.520       .  S
C544        C596   1.542       .  S
C545        C546   1.244       .  T
C547        C548   1.247       .  T
C549        C550   1.238       .  T
C551        C552   1.239       .  T
C553        C554   1.233       .  T
C555       C1650   1.495       .  S
C555        C556   1.242       .  T
C557        C558   1.239       .  T
C558       C1640   1.490       .  S
C559        C560   1.253       .  T
C561        C562   1.237       .  T
C563       C1071   1.478       .  S
C563        C564   1.232       .  T
C565       C1014   1.455       .  S
C565        C566   1.221       .  T
C567        C568   1.248       .  T
C569        C570   1.224       .  T
C571        C572   1.216       .  T
C573        C574   1.215       .  T
C575        C576   1.233       .  T
C577        C578   1.223       .  T
C579        C676   1.493       .  S
C579        C580   1.241       .  T
C581        C582   1.245       .  T
C583        C584   1.244       .  T
C584        C998   1.495       .  S
C585        C586   1.239       .  T
C587       C1804   1.237       .  T
C588       C1803   1.237       .  T
C589        C590   1.215       .  T
C591       C1808   1.222       .  T
C592       C1807   1.222       .  T
C593        C594   1.233       .  T
C595       C2156   1.510   1_455  S
C595        C596   1.250       .  T
C597        C598   1.230       .  T
C598       C1547   1.471   1_455  S
C599        C600   1.254       .  T
C600        C922   1.516   1_545  S
C601        C766   1.487   1_556  S
C601        C602   1.238       .  T
C603        C604   1.228       .  T
C604       C1639   1.469       .  S
C605        C606   1.255       .  T
C607        C608   1.228       .  T
C608       C1345   1.469       .  S
C609        C906   1.523       .  S
C609        C907   1.502       .  S
C609        C909   1.552       .  S
C609        C911   1.501       .  S
O610        C618   1.291       .  A
O610       Co630   1.931       .  S
O611        C619   1.259       .  A
O611       Co631   2.014       .  S
O612        C620   1.288       .  A
O612       Co632   2.024       .  S
O613        C621   1.246       .  A
O613       Co633   1.908       .  S
O614        C620   1.264       .  A
O614       Co631   1.850       .  S
O615        C621   1.257       .  A
O615       Co630   1.934       .  S
O616        C619   1.282       .  A
O616       Co633   2.081       .  S
O617        C618   1.333   1_545  A
O617       Co632   2.200   1_545  S
C619        C898   1.479       .  S
C621        C844   1.365       .  S
O622        C635   1.303       .  A
O622       Co630   2.084       .  S
O623        C636   1.296   1_565  A
O623       Co631   2.103       .  S
O624        C637   1.243       .  A
O624       Co632   1.926       .  S
O625        C638   1.244       .  A
O625       Co633   1.884       .  S
O626        C638   1.243       .  A
O626       Co631   1.934       .  S
O627        C637   1.237       .  A
O627       Co630   1.939       .  S
O628        C635   1.271       .  A
O628       Co633   1.968       .  S
O629        C636   1.285       .  A
O629       Co632   1.986   1_545  S
Co630       O634   1.888       .  S
Co631       O634   1.950       .  S
Co632       O634   2.032       .  S
Co633       O634   2.023       .  S
C635       C2118   1.471       .  S
C636       C1507   1.509       .  S
C637       C1334   1.390       .  S
C638       C1956   1.352       .  S
O639        C647   1.225       .  A
O639       Co659   1.889       .  S
O640        C648   1.255       .  A
O640       Co660   1.938       .  S
O641        C953   1.294   1_554  A
O641       Co965   2.066   1_554  S
O642        C650   1.273       .  A
O642       Co662   1.972       .  S
O643        C649   1.294       .  A
O643       Co660   1.985       .  S
O644        C650   1.300       .  A
O644       Co659   2.083       .  S
O645        C648   1.246       .  A
O645       Co662   1.913       .  S
O646        C951   1.229   1_554  A
O646       Co965   1.892   1_554  S
C647        O950   1.229       .  A
C647       C2259   1.346       .  S
C648       C1941   1.388       .  S
C649        O945   1.294       .  A
C649       C1195   1.484       .  S
C650        C896   1.457       .  S
O651        C664   1.238       .  A
O651       Co659   1.917       .  S
O652        C665   1.248       .  A
O652       Co660   1.959       .  S
O653        C970   1.289       .  A
O653       Co965   2.043   1_554  S
O654        C667   1.277       .  A
O654       Co662   2.012       .  S
O655        C667   1.295       .  A
O655       Co660   2.068       .  S
O656        C666   1.289       .  A
O656       Co659   1.945       .  S
O657        C664   1.234       .  A
O657       Co662   1.906       .  S
O658        C969   1.230   1_554  A
O658       Co965   1.920   1_554  S
Co659       O663   1.905       .  S
Co660       O663   1.894       .  S
Co661       O945   2.066       .  S
Co661       O950   1.892       .  S
Co661       O957   2.043       .  S
Co661       O962   1.920       .  S
Co661       O663   2.110       .  S
Co662       O663   2.006       .  S
C664        C843   1.357       .  S
C665        O962   1.230       .  A
C665       C1089   1.389       .  S
C666        O957   1.289       .  A
C666       C1197   1.447       .  S
C667        C890   1.488       .  S
O668        C980   1.294   1_565  A
O668       Co992   2.139   1_554  S
O669        C677   1.276       .  A
O669       Co689   2.071       .  S
O671        C679   1.212       .  A
O671       Co691   1.884       .  S
O672        C678   1.272       .  A
O672       Co689   1.980       .  S
O673        C983   1.240       .  A
O673       Co992   2.007   1_554  S
O674        C677   1.250       .  A
O674       Co691   1.956       .  S
C676        O972   1.294   1_545  A
C677        C882   1.461       .  S
C678        C708   1.421       .  S
C679        O977   1.240       .  A
C679       C1060   1.376       .  S
O680        C997   1.257       .  A
O680       Co992   1.990       .  S
O681        C694   1.251   1_565  A
O681       Co689   1.967       .  S
O683        C696   1.267       .  A
O683       Co691   2.005       .  S
O684        C696   1.247       .  A
O684       Co689   1.894       .  S
O685        C999   1.278       .  A
O685       Co992   1.858   1_554  S
O686        C693   1.289       .  A
O686       Co691   2.120       .  S
Co688       O972   2.139       .  S
Co688       O977   2.007       .  S
Co688       O984   1.990       .  S
Co688       O989   1.858       .  S
Co688       O692   2.057       .  S
Co689       O692   1.991       .  S
Co690       O692   2.003       .  S
Co691       O692   1.993       .  S
C693        O984   1.257       .  A
C693       C1190   1.498       .  S
C695        O989   1.278       .  A
C696        C826   1.419       .  S
C697        C873   1.497       .  S
C697        C876   1.484       .  S
C697        C877   1.481       .  S
C697        C879   1.514       .  S
C698        C866   1.519       .  S
C698        C868   1.511       .  S
C698        C870   1.490       .  S
C698        C872   1.540       .  S
C699        C858   1.514       .  S
C699        C860   1.528       .  S
C699        C861   1.523       .  S
C699        C863   1.548       .  S
O700       Co720   1.977       .  S
O701        C709   1.281       .  A
O701       Co721   2.038       .  S
O702       Co722   1.957       .  S
O703        C711   1.273       .  A
O703       Co723   2.001       .  S
O704        C710   1.274       .  A
O704       Co721   2.059       .  S
O705        C711   1.282       .  A
O705       Co720   2.057       .  S
O706        C709   1.259       .  A
O706       Co723   1.859       .  S
O707        C708   1.238       .  A
O707       Co722   1.887       .  S
C709        C816   1.400       .  S
C711        C874   1.465       .  S
O712        C725   1.242       .  A
O712       Co720   1.921       .  S
O713        C726   1.249       .  A
O713       Co721   1.906       .  S
O714        C727   1.281       .  A
O714       Co722   2.066       .  S
O715        C728   1.301       .  A
O715       Co723   2.137       .  S
O716        C728   1.268       .  A
O716       Co721   1.942       .  S
O717       Co720   1.968   1_655  S
O718        C725   1.239       .  A
O718       Co723   1.947       .  S
O719       Co722   1.977       .  S
Co720       O724   2.036       .  S
Co721       O724   2.017       .  S
Co723       O724   2.015       .  S
C725       C1864   1.388   1_455  S
C726       C1245   1.390   1_455  S
C727       C2124   1.469   1_455  S
C728       C2078   1.490   1_455  S
O729        C737   1.256   1_554  A
O729       Co749   1.975       .  S
O730        C738   1.300       .  A
O730       Co750   2.098       .  S
O731       C1043   1.255       .  A
O731      Co1055   1.928       .  S
O732        C740   1.236       .  A
O732       Co752   1.950   1_655  S
O733        C739   1.231       .  A
O733       Co750   1.846       .  S
O734        C740   1.227   1_455  A
O734       Co749   1.882       .  S
O735        C738   1.284       .  A
O735       Co752   1.970       .  S
O736       C1041   1.285       .  A
O736      Co1055   2.082       .  S
C737       O1040   1.285       .  A
C737       C2432   1.469   1_455  S
C738       C2075   1.495   1_455  S
C739       O1035   1.255   1_554  A
C739       C2167   1.346   1_454  S
C740       C1854   1.352       .  S
O741        C754   1.273       .  A
O741       Co749   1.978       .  S
O742        C755   1.270       .  A
O742       Co750   2.017       .  S
O743       C1060   1.240       .  A
O743      Co1055   1.963       .  S
O744        C757   1.233       .  A
O744       Co752   1.885       .  S
O745        C757   1.227       .  A
O745       Co750   1.897       .  S
O746        C756   1.226       .  A
O746       Co749   1.855       .  S
O747        C754   1.307       .  A
O747       Co752   2.117       .  S
O748       C1059   1.263       .  A
O748      Co1055   1.985       .  S
Co749       O753   2.091       .  S
Co750       O753   2.076       .  S
Co751      O1035   1.928       .  S
Co751      O1040   2.082       .  S
Co751      O1047   1.963       .  S
Co751      O1052   1.985   1_556  S
Co751       O753   2.092   1_556  S
Co752       O753   1.968       .  S
C754        C865   1.485       .  S
C755       O1052   1.263       .  A
C755       C1179   1.448   1_554  S
C756       O1047   1.240   1_554  A
C756        C983   1.376       .  S
C757        C817   1.359       .  S
O758       C1070   1.290       .  A
O758      Co1082   2.081       .  S
O759        C767   1.307       .  A
O759       Co779   2.144       .  S
O760        C768   1.240       .  A
O760       Co780   1.915       .  S
O761        C769   1.231       .  A
O761       Co781   1.910       .  S
O762        C768   1.245       .  A
O762       Co779   1.914       .  S
O763       C1073   1.252       .  A
O763      Co1082   1.929       .  S
O764        C767   1.263       .  A
O764       Co781   1.905       .  S
O765        C766   1.278       .  A
O765       Co780   1.952       .  S
C766       O1062   1.290   1_554  A
C769       O1067   1.252   1_554  A
O770       C1087   1.248       .  A
O770      Co1082   1.961       .  S
O771        C784   1.259       .  A
O771       Co779   1.979       .  S
O772        C785   1.248       .  A
O772       Co780   1.952       .  S
O773        C786   1.235       .  A
O773       Co781   1.931       .  S
O774        C786   1.234       .  A
O774       Co779   1.884       .  S
O775       C1089   1.229       .  A
O775      Co1082   1.871       .  S
O776        C783   1.268       .  A
O776       Co781   2.046       .  S
O777        C784   1.285       .  A
O777       Co780   2.076       .  S
Co778      O1062   2.081   1_554  S
Co778      O1067   1.929   1_554  S
Co778      O1074   1.961   1_554  S
Co778      O1079   1.871   1_554  S
Co778       O782   2.132       .  S
Co779       O782   2.128       .  S
Co780       O782   1.997       .  S
Co781       O782   1.991       .  S
C783       O1074   1.248   1_554  A
C783       C1182   1.447   1_554  S
C784        C857   1.477       .  S
C785       O1079   1.229   1_554  A
C785        C969   1.389   1_554  S
C786        C799   1.383       .  S
C787        C856   1.523       .  S
C787        C885   1.531       .  S
C787        C894   1.478       .  S
C787        C897   1.508       .  S
C788        C853   1.521       .  S
C788        C881   1.496       .  S
C788        C895   1.491       .  S
C788        C901   1.505       .  S
O789        C797   1.278       .  A
O789       Co809   1.958       .  S
O790        C798   1.265       .  A
O790       Co810   2.051       .  S
O791        C799   1.286       .  A
O791       Co811   1.997       .  S
O792        C800   1.252       .  A
O792       Co812   1.945       .  S
O793        C799   1.267       .  A
O793       Co810   1.874       .  S
O794        C800   1.226       .  A
O794       Co809   1.906       .  S
O795        C798   1.265       .  A
O795       Co812   2.043       .  S
O796        C797   1.305       .  A
O796       Co811   2.134       .  S
C797        C851   1.504       .  S
C798        C855   1.489       .  S
C800        C827   1.389       .  S
O801        C814   1.292       .  A
O801       Co809   2.109       .  S
O802        C815   1.256       .  A
O802       Co810   2.022       .  S
O803        C816   1.246       .  A
O803       Co811   1.953       .  S
O804        C817   1.246       .  A
O804       Co812   1.867       .  S
O805        C817   1.242       .  A
O805       Co810   1.921       .  S
O806        C816   1.233       .  A
O806       Co809   1.890       .  S
O807        C814   1.254       .  A
O807       Co812   1.967       .  S
O808        C815   1.264       .  A
O808       Co811   2.052       .  S
Co809       O813   1.917       .  S
Co810       O813   1.964       .  S
Co811       O813   2.240       .  S
Co812       O813   2.109       .  S
C814        C854   1.484       .  S
C815        C850   1.498       .  S
O818        C826   1.235       .  A
O818       Co838   1.926       .  S
O819        C827   1.221       .  A
O819       Co839   1.894       .  S
O820        C828   1.323       .  A
O820       Co840   2.192       .  S
O821        C829   1.313       .  A
O821       Co841   2.146       .  S
O822        C828   1.277       .  A
O822       Co839   1.916       .  S
O823        C829   1.284       .  A
O823       Co838   1.913       .  S
O824        C827   1.244       .  A
O824       Co841   1.949       .  S
O825        C826   1.248       .  A
O825       Co840   1.923       .  S
C828        C871   1.506       .  S
C829        C880   1.481       .  S
O830        C843   1.222       .  A
O830       Co838   1.906       .  S
O831        C844   1.229       .  A
O831       Co839   1.945       .  S
O832        C845   1.260       .  A
O832       Co840   1.973       .  S
O833        C846   1.255       .  A
O833       Co841   1.971       .  S
O834        C846   1.302       .  A
O834       Co839   2.135       .  S
O835        C845   1.307       .  A
O835       Co838   2.141       .  S
O836        C843   1.229       .  A
O836       Co841   1.857       .  S
O837        C844   1.221       .  A
O837       Co840   1.874       .  S
Co838       O842   2.020       .  S
Co839       O842   1.974       .  S
Co840       O842   2.096       .  S
Co841       O842   2.136       .  S
C845        C910   1.511       .  S
C846        C864   1.509       .  S
C847        C852   1.537       .  S
C847        C887   1.532       .  S
C847        C889   1.522       .  S
C847        C903   1.549       .  S
C848        C849   1.530       .  S
C848        C884   1.525       .  S
C848        C892   1.520       .  S
C848        C900   1.542       .  S
C849        C850   1.243       .  T
C851        C852   1.247       .  T
C853        C854   1.238       .  T
C855        C856   1.239       .  T
C857        C858   1.233       .  T
C859       C1954   1.495       .  S
C859        C860   1.242       .  T
C861        C862   1.239       .  T
C862       C1944   1.490       .  S
C863        C864   1.253       .  T
C865        C866   1.237       .  T
C867        C868   1.232       .  T
C869        C870   1.221       .  T
C871        C872   1.248       .  T
C873        C874   1.224       .  T
C875       C1059   1.448       .  S
C875        C876   1.216       .  T
C877        C878   1.215       .  T
C878       C1087   1.447       .  S
C879        C880   1.233       .  T
C881        C882   1.223       .  T
C883        C884   1.241       .  T
C885        C886   1.245       .  T
C886        C997   1.498   1_554  S
C887        C888   1.244       .  T
C889        C890   1.239       .  T
C891        C953   1.484   1_554  S
C891       C2108   1.237       .  T
C892       C2107   1.237       .  T
C893        C970   1.447       .  S
C893        C894   1.215       .  T
C895       C2112   1.222       .  T
C896       C2111   1.222       .  T
C897        C898   1.233       .  T
C899       C1244   1.509   1_455  S
C899        C900   1.250       .  T
C901        C902   1.230       .  T
C902       C1851   1.471   1_455  S
C903        C904   1.254       .  T
C905        C906   1.238       .  T
C907        C908   1.228       .  T
C908       C1943   1.469       .  S
C909        C910   1.255       .  T
C911        C912   1.228       .  T
C912       C2257   1.469       .  S
C913       C1210   1.523       .  S
C913       C1211   1.502       .  S
C913       C1213   1.552       .  S
C913       C1215   1.501       .  S
O914        C922   1.291       .  A
O914       Co934   1.931       .  S
O915        C923   1.259       .  A
O915       Co935   2.014       .  S
O916        C924   1.288       .  A
O916       Co936   2.024       .  S
O917        C925   1.246       .  A
O917       Co937   1.908       .  S
O918        C924   1.264       .  A
O918       Co935   1.850       .  S
O919        C925   1.257       .  A
O919       Co934   1.934       .  S
O920        C923   1.282       .  A
O920       Co937   2.081       .  S
O921        C922   1.333   1_545  A
O921       Co936   2.200   1_545  S
C923       C1202   1.479       .  S
C925       C1148   1.365       .  S
O926        C939   1.303       .  A
O926       Co934   2.084       .  S
O927        C940   1.296   1_565  A
O927       Co935   2.103       .  S
O928        C941   1.243       .  A
O928       Co936   1.926       .  S
O929        C942   1.244       .  A
O929       Co937   1.884       .  S
O930        C942   1.243       .  A
O930       Co935   1.934       .  S
O931        C941   1.237       .  A
O931       Co934   1.939       .  S
O932        C939   1.271       .  A
O932       Co937   1.968       .  S
O933        C940   1.285       .  A
O933       Co936   1.986   1_545  S
Co934       O938   1.888       .  S
Co935       O938   1.950       .  S
Co936       O938   2.032       .  S
Co937       O938   2.023       .  S
C939       C2422   1.471       .  S
C940       C1811   1.510       .  S
C941       C1638   1.390       .  S
C942       C2260   1.352       .  S
O943        C951   1.225       .  A
O943       Co963   1.889       .  S
O944        C952   1.255       .  A
O944       Co964   1.938       .  S
O946        C954   1.273       .  A
O946       Co966   1.972       .  S
O947        C953   1.294       .  A
O947       Co964   1.985       .  S
O948        C954   1.300       .  A
O948       Co963   2.083       .  S
O949        C952   1.246       .  A
O949       Co966   1.913       .  S
C951       C1955   1.346   1_556  S
C952       C2245   1.388       .  S
C954       C1200   1.457       .  S
O955        C968   1.238       .  A
O955       Co963   1.917       .  S
O956        C969   1.248       .  A
O956       Co964   1.959       .  S
O958        C971   1.277       .  A
O958       Co966   2.012       .  S
O959        C971   1.295       .  A
O959       Co964   2.068       .  S
O960        C970   1.289   1_556  A
O960       Co963   1.945       .  S
O961        C968   1.234       .  A
O961       Co966   1.906       .  S
Co963       O967   1.905       .  S
Co964       O967   1.894       .  S
Co965       O967   2.110       .  S
Co966       O967   2.006       .  S
C968       C1147   1.357       .  S
C971       C1194   1.488       .  S
O973        C981   1.276       .  A
O973       Co993   2.071       .  S
O975        C983   1.212   1_556  A
O975       Co995   1.884       .  S
O976        C982   1.272       .  A
O976       Co993   1.980       .  S
O978        C981   1.250       .  A
O978       Co995   1.956       .  S
C981       C1186   1.461       .  S
C982       C1012   1.421       .  S
O985        C998   1.251   1_565  A
O985       Co993   1.967       .  S
O987       C1000   1.267       .  A
O987       Co995   2.005       .  S
O988       C1000   1.247       .  A
O988       Co993   1.894       .  S
O990        C997   1.289       .  A
O990       Co995   2.120       .  S
Co992       O996   2.057       .  S
Co993       O996   1.991       .  S
Co994       O996   2.003       .  S
Co995       O996   1.993       .  S
C1000      C1130   1.419       .  S
C1001      C1177   1.497       .  S
C1001      C1180   1.484       .  S
C1001      C1181   1.481       .  S
C1001      C1183   1.514       .  S
C1002      C1170   1.519       .  S
C1002      C1172   1.511       .  S
C1002      C1174   1.490       .  S
C1002      C1176   1.540       .  S
C1003      C1162   1.514       .  S
C1003      C1164   1.529       .  S
C1003      C1165   1.523       .  S
C1003      C1167   1.548       .  S
O1004     Co1024   1.977       .  S
O1005      C1013   1.281       .  A
O1005     Co1025   2.038       .  S
O1006     Co1026   1.957       .  S
O1007      C1015   1.273       .  A
O1007     Co1027   2.001       .  S
O1008      C1014   1.274       .  A
O1008     Co1025   2.059       .  S
O1009      C1015   1.282       .  A
O1009     Co1024   2.057       .  S
O1010      C1013   1.259       .  A
O1010     Co1027   1.859       .  S
O1011      C1012   1.238       .  A
O1011     Co1026   1.887       .  S
C1013      C1120   1.400       .  S
C1015      C1178   1.465       .  S
O1016      C1029   1.242       .  A
O1016     Co1024   1.921       .  S
O1017      C1030   1.249       .  A
O1017     Co1025   1.906       .  S
O1018      C1031   1.281       .  A
O1018     Co1026   2.066       .  S
O1019      C1032   1.301       .  A
O1019     Co1027   2.137       .  S
O1020      C1032   1.268       .  A
O1020     Co1025   1.943       .  S
O1021     Co1024   1.968   1_655  S
O1022      C1029   1.239       .  A
O1022     Co1027   1.947       .  S
O1023     Co1026   1.977       .  S
Co1024     O1028   2.036       .  S
Co1025     O1028   2.017       .  S
Co1027     O1028   2.015       .  S
C1029      C2168   1.388   1_455  S
C1030      C1549   1.390   1_455  S
C1031      C2428   1.469   1_455  S
C1032      C2382   1.490   1_455  S
O1033      C1041   1.256       .  A
O1033     Co1053   1.975       .  S
O1034      C1042   1.300       .  A
O1034     Co1054   2.098       .  S
O1036      C1044   1.236       .  A
O1036     Co1056   1.950   1_655  S
O1037      C1043   1.231       .  A
O1037     Co1054   1.846       .  S
O1038      C1044   1.227   1_455  A
O1038     Co1053   1.882       .  S
O1039      C1042   1.284       .  A
O1039     Co1056   1.970       .  S
C1041      C2128   1.469   1_455  S
C1042      C2379   1.495   1_455  S
C1043      C1863   1.346   1_455  S
C1044      C2158   1.352       .  S
O1045      C1058   1.273       .  A
O1045     Co1053   1.978       .  S
O1046      C1059   1.270       .  A
O1046     Co1054   2.017       .  S
O1048      C1061   1.233       .  A
O1048     Co1056   1.885       .  S
O1049      C1061   1.227       .  A
O1049     Co1054   1.897       .  S
O1050      C1060   1.226       .  A
O1050     Co1053   1.855       .  S
O1051      C1058   1.306       .  A
O1051     Co1056   2.117       .  S
Co1053     O1057   2.091       .  S
Co1054     O1057   2.076       .  S
Co1055     O1057   2.092       .  S
Co1056     O1057   1.968       .  S
C1058      C1169   1.485       .  S
C1061      C1121   1.359       .  S
O1063      C1071   1.307       .  A
O1063     Co1083   2.144       .  S
O1064      C1072   1.240       .  A
O1064     Co1084   1.915       .  S
O1065      C1073   1.231       .  A
O1065     Co1085   1.910       .  S
O1066      C1072   1.245       .  A
O1066     Co1083   1.914       .  S
O1068      C1071   1.263       .  A
O1068     Co1085   1.905       .  S
O1069      C1070   1.278       .  A
O1069     Co1084   1.952       .  S
O1075      C1088   1.259       .  A
O1075     Co1083   1.979       .  S
O1076      C1089   1.248       .  A
O1076     Co1084   1.952       .  S
O1077      C1090   1.235       .  A
O1077     Co1085   1.931       .  S
O1078      C1090   1.234       .  A
O1078     Co1083   1.884       .  S
O1080      C1087   1.268       .  A
O1080     Co1085   2.046       .  S
O1081      C1088   1.285       .  A
O1081     Co1084   2.076       .  S
Co1082     O1086   2.132       .  S
Co1083     O1086   2.128       .  S
Co1084     O1086   1.997       .  S
Co1085     O1086   1.991       .  S
C1088      C1161   1.477       .  S
C1090      C1103   1.383       .  S
C1091      C1160   1.523       .  S
C1091      C1189   1.531       .  S
C1091      C1198   1.478       .  S
C1091      C1201   1.508       .  S
C1092      C1157   1.521       .  S
C1092      C1185   1.496       .  S
C1092      C1199   1.491       .  S
C1092      C1205   1.505       .  S
O1093      C1101   1.278       .  A
O1093     Co1113   1.958       .  S
O1094      C1102   1.265       .  A
O1094     Co1114   2.051       .  S
O1095      C1103   1.286       .  A
O1095     Co1115   1.997       .  S
O1096      C1104   1.252       .  A
O1096     Co1116   1.945       .  S
O1097      C1103   1.267       .  A
O1097     Co1114   1.874       .  S
O1098      C1104   1.226       .  A
O1098     Co1113   1.906       .  S
O1099      C1102   1.265       .  A
O1099     Co1116   2.043       .  S
O1100      C1101   1.305       .  A
O1100     Co1115   2.134       .  S
C1101      C1155   1.504       .  S
C1102      C1159   1.489       .  S
C1104      C1131   1.389       .  S
O1105      C1118   1.292       .  A
O1105     Co1113   2.109       .  S
O1106      C1119   1.256       .  A
O1106     Co1114   2.022       .  S
O1107      C1120   1.246       .  A
O1107     Co1115   1.953       .  S
O1108      C1121   1.246       .  A
O1108     Co1116   1.867       .  S
O1109      C1121   1.242       .  A
O1109     Co1114   1.921       .  S
O1110      C1120   1.233       .  A
O1110     Co1113   1.890       .  S
O1111      C1118   1.254       .  A
O1111     Co1116   1.967       .  S
O1112      C1119   1.264       .  A
O1112     Co1115   2.052       .  S
Co1113     O1117   1.917       .  S
Co1114     O1117   1.964       .  S
Co1115     O1117   2.240       .  S
Co1116     O1117   2.109       .  S
C1118      C1158   1.484       .  S
C1119      C1154   1.498       .  S
O1122      C1130   1.235       .  A
O1122     Co1142   1.926       .  S
O1123      C1131   1.221       .  A
O1123     Co1143   1.894       .  S
O1124      C1132   1.323       .  A
O1124     Co1144   2.192       .  S
O1125      C1133   1.313       .  A
O1125     Co1145   2.146       .  S
O1126      C1132   1.277       .  A
O1126     Co1143   1.917       .  S
O1127      C1133   1.284       .  A
O1127     Co1142   1.913       .  S
O1128      C1131   1.244       .  A
O1128     Co1145   1.949       .  S
O1129      C1130   1.248       .  A
O1129     Co1144   1.923       .  S
C1132      C1175   1.506       .  S
C1133      C1184   1.481       .  S
O1134      C1147   1.222       .  A
O1134     Co1142   1.906       .  S
O1135      C1148   1.229       .  A
O1135     Co1143   1.945       .  S
O1136      C1149   1.260       .  A
O1136     Co1144   1.973       .  S
O1137      C1150   1.255       .  A
O1137     Co1145   1.971       .  S
O1138      C1150   1.302       .  A
O1138     Co1143   2.135       .  S
O1139      C1149   1.307       .  A
O1139     Co1142   2.141       .  S
O1140      C1147   1.229       .  A
O1140     Co1145   1.857       .  S
O1141      C1148   1.221       .  A
O1141     Co1144   1.874       .  S
Co1142     O1146   2.020       .  S
Co1143     O1146   1.974       .  S
Co1144     O1146   2.096       .  S
Co1145     O1146   2.137       .  S
C1149      C1214   1.511       .  S
C1150      C1168   1.509       .  S
C1151      C1156   1.537       .  S
C1151      C1191   1.532       .  S
C1151      C1193   1.522       .  S
C1151      C1207   1.549       .  S
C1152      C1153   1.530       .  S
C1152      C1188   1.525       .  S
C1152      C1196   1.520       .  S
C1152      C1204   1.542       .  S
C1153      C1154   1.243       .  T
C1155      C1156   1.247       .  T
C1157      C1158   1.238       .  T
C1159      C1160   1.239       .  T
C1161      C1162   1.233       .  T
C1163      C2258   1.495       .  S
C1163      C1164   1.242       .  T
C1165      C1166   1.239       .  T
C1166      C2248   1.490       .  S
C1167      C1168   1.253       .  T
C1169      C1170   1.237       .  T
C1171      C1172   1.232       .  T
C1173      C1174   1.221       .  T
C1175      C1176   1.248       .  T
C1177      C1178   1.224       .  T
C1179      C1180   1.216       .  T
C1181      C1182   1.215       .  T
C1183      C1184   1.233       .  T
C1185      C1186   1.223       .  T
C1187      C1188   1.241       .  T
C1189      C1190   1.245       .  T
C1191      C1192   1.244       .  T
C1193      C1194   1.239       .  T
C1195      C2412   1.237       .  T
C1196      C2411   1.237       .  T
C1197      C1198   1.215       .  T
C1199      C2416   1.222       .  T
C1200      C2415   1.222       .  T
C1201      C1202   1.233       .  T
C1203      C1548   1.510   1_455  S
C1203      C1204   1.250       .  T
C1205      C1206   1.230       .  T
C1206      C2155   1.471   1_455  S
C1207      C1208   1.254       .  T
C1209      C1210   1.238       .  T
C1211      C1212   1.228       .  T
C1212      C2247   1.469       .  S
C1213      C1214   1.255       .  T
C1215      C1216   1.228       .  T
C1216      C1953   1.469       .  S
C1217      C1514   1.523       .  S
C1217      C1515   1.502       .  S
C1217      C1517   1.552       .  S
C1217      C1519   1.501       .  S
O1218      C1226   1.291       .  A
O1218     Co1238   1.931       .  S
O1219      C1227   1.259       .  A
O1219     Co1239   2.014       .  S
O1220      C1228   1.288       .  A
O1220     Co1240   2.024       .  S
O1221      C1229   1.246       .  A
O1221     Co1241   1.908       .  S
O1222      C1228   1.264       .  A
O1222     Co1239   1.850       .  S
O1223      C1229   1.257       .  A
O1223     Co1238   1.934       .  S
O1224      C1227   1.282       .  A
O1224     Co1241   2.081       .  S
O1225      C1226   1.333       .  A
O1225     Co1240   2.200       .  S
C1226      C2120   1.516       .  S
C1227      C1506   1.479       .  S
C1228      C1984   1.390       .  S
C1229      C1452   1.365       .  S
O1230      C1243   1.303       .  A
O1230     Co1238   2.084       .  S
O1231      C1244   1.296       .  A
O1231     Co1239   2.103       .  S
O1232      C1245   1.243       .  A
O1232     Co1240   1.926       .  S
O1233      C1246   1.244       .  A
O1233     Co1241   1.884       .  S
O1234      C1246   1.243       .  A
O1234     Co1239   1.934       .  S
O1235      C1245   1.237       .  A
O1235     Co1238   1.939       .  S
O1236      C1243   1.271       .  A
O1236     Co1241   1.968       .  S
O1237      C1244   1.285       .  A
O1237     Co1240   1.986       .  S
Co1238     O1242   1.888       .  S
Co1239     O1242   1.950       .  S
Co1240     O1242   2.032       .  S
Co1241     O1242   2.023       .  S
O1247      C1255   1.225       .  A
O1247     Co1267   1.889       .  S
O1248      C1256   1.255       .  A
O1248     Co1268   1.938       .  S
O1249      C1561   1.294   1_554  A
O1249     Co1573   2.066   1_554  S
O1250      C1258   1.273       .  A
O1250     Co1270   1.972       .  S
O1251      C1257   1.294       .  A
O1251     Co1268   1.985       .  S
O1252      C1258   1.300       .  A
O1252     Co1267   2.083       .  S
O1253      C1256   1.246       .  A
O1253     Co1270   1.913       .  S
O1254      C1559   1.229   1_554  A
O1254     Co1573   1.892   1_554  S
C1255      O1558   1.229       .  A
C1257      O1553   1.294       .  A
C1257      C1803   1.484   1_655  S
C1258      C1504   1.457   1_655  S
O1259      C1272   1.238       .  A
O1259     Co1267   1.917       .  S
O1260      C1273   1.248       .  A
O1260     Co1268   1.959       .  S
O1261      C1578   1.289       .  A
O1261     Co1573   2.043   1_554  S
O1262      C1275   1.277       .  A
O1262     Co1270   2.012       .  S
O1263      C1275   1.295       .  A
O1263     Co1268   2.068       .  S
O1264      C1274   1.289       .  A
O1264     Co1267   1.945       .  S
O1265      C1272   1.234       .  A
O1265     Co1270   1.906       .  S
O1266      C1577   1.230   1_554  A
O1266     Co1573   1.920   1_554  S
Co1267     O1271   1.905       .  S
Co1268     O1271   1.894       .  S
Co1269     O1553   2.066       .  S
Co1269     O1558   1.892       .  S
Co1269     O1565   2.043       .  S
Co1269     O1570   1.920       .  S
Co1269     O1271   2.110       .  S
Co1270     O1271   2.006       .  S
C1272      C1451   1.357       .  S
C1273      O1570   1.230       .  A
C1273      C1697   1.389       .  S
C1274      O1565   1.289       .  A
C1274      C1805   1.447       .  S
C1275      C1498   1.488       .  S
O1276      C1588   1.294       .  A
O1276     Co1600   2.139   1_554  S
O1277      C1285   1.276       .  A
O1277     Co1297   2.071       .  S
O1278      C1894   1.249       .  A
O1278     Co1906   1.928       .  S
O1279      C1287   1.211       .  A
O1279     Co1299   1.884       .  S
O1280      C1286   1.272       .  A
O1280     Co1297   1.980       .  S
O1281      C1591   1.240       .  A
O1281     Co1600   2.007   1_554  S
O1282      C1285   1.250       .  A
O1282     Co1299   1.956       .  S
O1283      C1892   1.274       .  A
O1283     Co1906   1.950   1_545  S
C1284      O1580   1.294       .  A
C1284      O1891   1.274       .  A
C1284      C2403   1.493       .  S
C1285      C1490   1.461       .  S
C1286      O1886   1.249       .  A
C1286      C1316   1.421       .  S
C1287      O1585   1.240       .  A
C1287      C1668   1.376       .  S
O1288      C1605   1.257       .  A
O1288     Co1600   1.990       .  S
O1289      C1302   1.251       .  A
O1289     Co1297   1.967       .  S
O1290      C1911   1.292       .  A
O1290     Co1906   2.008       .  S
O1291      C1304   1.267       .  A
O1291     Co1299   2.005       .  S
O1292      C1304   1.247       .  A
O1292     Co1297   1.894       .  S
O1293      C1607   1.278       .  A
O1293     Co1600   1.858   1_554  S
O1294      C1301   1.289       .  A
O1294     Co1299   2.120       .  S
O1295      C1910   1.292       .  A
O1295     Co1906   2.115   1_545  S
Co1296     O1580   2.139       .  S
Co1296     O1585   2.007       .  S
Co1296     O1592   1.990       .  S
Co1296     O1597   1.858       .  S
Co1296     O1300   2.057       .  S
Co1297     O1300   1.991       .  S
Co1298     O1886   1.928       .  S
Co1298     O1891   1.950       .  S
Co1298     O1898   2.008       .  S
Co1298     O1903   2.115       .  S
Co1298     O1300   2.003       .  S
Co1299     O1300   1.993       .  S
C1301      O1592   1.257       .  A
C1301      C1798   1.498       .  S
C1302      O1903   1.292       .  A
C1302      C2104   1.495       .  S
C1303      O1898   1.292       .  A
C1303      O1597   1.278       .  A
C1303      C2289   1.404       .  S
C1304      C1434   1.419       .  S
C1305      C1481   1.497       .  S
C1305      C1484   1.484       .  S
C1305      C1485   1.481       .  S
C1305      C1487   1.514       .  S
C1306      C1474   1.519       .  S
C1306      C1476   1.511       .  S
C1306      C1478   1.490       .  S
C1306      C1480   1.540       .  S
C1307      C1466   1.514       .  S
C1307      C1468   1.528       .  S
C1307      C1469   1.523       .  S
C1307      C1471   1.548       .  S
O1308      C1924   1.261       .  A
O1308     Co1328   1.977   1_565  S
O1309      C1317   1.281       .  A
O1309     Co1329   2.038       .  S
O1310      C1926   1.246       .  A
O1310     Co1330   1.957       .  S
O1311      C1319   1.273       .  A
O1311     Co1331   2.001       .  S
O1312      C1318   1.274   1_545  A
O1312     Co1329   2.059       .  S
O1313      C1319   1.282       .  A
O1313     Co1328   2.057       .  S
O1314      C1317   1.259       .  A
O1314     Co1331   1.859       .  S
O1315      C1316   1.238       .  A
O1315     Co1330   1.887       .  S
C1316      O1916   1.261       .  A
C1317      C1424   1.400       .  S
C1318      O1918   1.246       .  A
C1318      C2085   1.455       .  S
C1319      C1482   1.465       .  S
O1320      C1333   1.242       .  A
O1320     Co1328   1.921       .  S
O1321      C1334   1.249   1_545  A
O1321     Co1329   1.906       .  S
O1322      C1335   1.281       .  A
O1322     Co1330   2.066       .  S
O1323      C1336   1.301       .  A
O1323     Co1331   2.137       .  S
O1324      C1336   1.268       .  A
O1324     Co1329   1.942       .  S
O1325      C1943   1.256   1_545  A
O1325     Co1328   1.968       .  S
O1326      C1333   1.239       .  A
O1326     Co1331   1.947       .  S
O1327      C1942   1.264       .  A
O1327     Co1330   1.977       .  S
Co1328     O1332   2.036       .  S
Co1329     O1332   2.017       .  S
Co1330     O1940   2.041       .  S
Co1331     O1332   2.015       .  S
O1332     Co1938   2.041   1_545  S
C1334      O1935   1.264       .  A
C1335      O1933   1.256       .  A
O1337      C1345   1.256   1_554  A
O1337     Co1357   1.975       .  S
O1338      C1346   1.300       .  A
O1338     Co1358   2.098       .  S
O1339      C1651   1.255       .  A
O1339     Co1663   1.928       .  S
O1340      C1348   1.236       .  A
O1340     Co1360   1.950       .  S
O1341      C1347   1.231       .  A
O1341     Co1358   1.846       .  S
O1342      C1348   1.227       .  A
O1342     Co1357   1.882       .  S
O1343      C1346   1.284       .  A
O1343     Co1360   1.970       .  S
O1344      C1649   1.285       .  A
O1344     Co1663   2.082       .  S
C1345      O1648   1.285       .  A
C1347      O1643   1.255   1_554  A
O1349      C1362   1.273       .  A
O1349     Co1357   1.978       .  S
O1350      C1363   1.270       .  A
O1350     Co1358   2.017       .  S
O1351      C1668   1.240       .  A
O1351     Co1663   1.963       .  S
O1352      C1365   1.233       .  A
O1352     Co1360   1.885       .  S
O1353      C1365   1.227       .  A
O1353     Co1358   1.897       .  S
O1354      C1364   1.226       .  A
O1354     Co1357   1.855       .  S
O1355      C1362   1.307       .  A
O1355     Co1360   2.117       .  S
O1356      C1667   1.263       .  A
O1356     Co1663   1.985       .  S
Co1357     O1361   2.091       .  S
Co1358     O1361   2.076       .  S
Co1359     O1643   1.928       .  S
Co1359     O1648   2.082       .  S
Co1359     O1655   1.963       .  S
Co1359     O1660   1.985   1_556  S
Co1359     O1361   2.092   1_556  S
Co1360     O1361   1.968       .  S
C1362      C1473   1.485       .  S
C1363      O1660   1.263       .  A
C1363      C1787   1.448   1_554  S
C1364      O1655   1.240   1_554  A
C1364      C1591   1.376       .  S
C1365      C1425   1.359       .  S
O1366      C1678   1.290       .  A
O1366     Co1690   2.081       .  S
O1367      C1375   1.307       .  A
O1367     Co1387   2.144       .  S
O1368      C1376   1.240       .  A
O1368     Co1388   1.915   1_565  S
O1369      C1377   1.231       .  A
O1369     Co1389   1.910   1_565  S
O1370      C1376   1.245   1_545  A
O1370     Co1387   1.914       .  S
O1371      C1681   1.252   1_545  A
O1371     Co1690   1.929       .  S
O1372      C1375   1.263       .  A
O1372     Co1389   1.905       .  S
O1373      C1374   1.278       .  A
O1373     Co1388   1.952       .  S
C1374      O1670   1.290   1_554  A
C1374      C2425   1.487   1_544  S
C1375      C2083   1.478   1_545  S
C1376      C1836   1.390       .  S
C1377      O1675   1.252   1_564  A
C1377      C2215   1.404       .  S
O1378      C1695   1.248       .  A
O1378     Co1690   1.961       .  S
O1379      C1392   1.259       .  A
O1379     Co1387   1.979       .  S
O1380      C1393   1.248       .  A
O1380     Co1388   1.952       .  S
O1381      C1394   1.235       .  A
O1381     Co1389   1.931       .  S
O1382      C1394   1.234       .  A
O1382     Co1387   1.884       .  S
O1383      C1697   1.229       .  A
O1383     Co1690   1.871       .  S
O1384      C1391   1.268       .  A
O1384     Co1389   2.046       .  S
O1385      C1392   1.285       .  A
O1385     Co1388   2.076       .  S
Co1386     O1670   2.081   1_554  S
Co1386     O1675   1.929   1_554  S
Co1386     O1682   1.961   1_554  S
Co1386     O1687   1.871   1_554  S
Co1386     O1390   2.132       .  S
Co1387     O1390   2.128       .  S
Co1388     O1390   1.997       .  S
Co1389     O1390   1.991       .  S
C1391      O1682   1.248   1_554  A
C1391      C1790   1.447   1_554  S
C1392      C1465   1.477       .  S
C1393      O1687   1.229   1_554  A
C1393      C1577   1.389   1_554  S
C1394      C1407   1.383       .  S
C1395      C1464   1.523       .  S
C1395      C1493   1.531       .  S
C1395      C1502   1.478       .  S
C1395      C1505   1.508       .  S
C1396      C1461   1.521       .  S
C1396      C1489   1.496       .  S
C1396      C1503   1.491       .  S
C1396      C1509   1.505       .  S
O1397      C1405   1.278       .  A
O1397     Co1417   1.958       .  S
O1398      C1406   1.265       .  A
O1398     Co1418   2.051       .  S
O1399      C1407   1.286       .  A
O1399     Co1419   1.997       .  S
O1400      C1408   1.252       .  A
O1400     Co1420   1.945       .  S
O1401      C1407   1.267       .  A
O1401     Co1418   1.874       .  S
O1402      C1408   1.226       .  A
O1402     Co1417   1.906       .  S
O1403      C1406   1.265       .  A
O1403     Co1420   2.043       .  S
O1404      C1405   1.305       .  A
O1404     Co1419   2.134       .  S
C1405      C1459   1.504       .  S
C1406      C1463   1.489       .  S
C1408      C1435   1.389       .  S
O1409      C1422   1.292       .  A
O1409     Co1417   2.109       .  S
O1410      C1423   1.256       .  A
O1410     Co1418   2.022       .  S
O1411      C1424   1.246       .  A
O1411     Co1419   1.953       .  S
O1412      C1425   1.246       .  A
O1412     Co1420   1.867       .  S
O1413      C1425   1.242       .  A
O1413     Co1418   1.921       .  S
O1414      C1424   1.233       .  A
O1414     Co1417   1.890       .  S
O1415      C1422   1.254       .  A
O1415     Co1420   1.967       .  S
O1416      C1423   1.264       .  A
O1416     Co1419   2.052       .  S
Co1417     O1421   1.917       .  S
Co1418     O1421   1.964       .  S
Co1419     O1421   2.240       .  S
Co1420     O1421   2.109       .  S
C1422      C1462   1.484       .  S
C1423      C1458   1.498       .  S
O1426      C1434   1.235       .  A
O1426     Co1446   1.926       .  S
O1427      C1435   1.221       .  A
O1427     Co1447   1.894       .  S
O1428      C1436   1.323       .  A
O1428     Co1448   2.192       .  S
O1429      C1437   1.313       .  A
O1429     Co1449   2.146       .  S
O1430      C1436   1.277       .  A
O1430     Co1447   1.916       .  S
O1431      C1437   1.284       .  A
O1431     Co1446   1.913       .  S
O1432      C1435   1.244       .  A
O1432     Co1449   1.949       .  S
O1433      C1434   1.248       .  A
O1433     Co1448   1.923       .  S
C1436      C1479   1.506       .  S
C1437      C1488   1.481       .  S
O1438      C1451   1.222       .  A
O1438     Co1446   1.906       .  S
O1439      C1452   1.229       .  A
O1439     Co1447   1.945       .  S
O1440      C1453   1.260       .  A
O1440     Co1448   1.973       .  S
O1441      C1454   1.255       .  A
O1441     Co1449   1.971       .  S
O1442      C1454   1.302       .  A
O1442     Co1447   2.135       .  S
O1443      C1453   1.307       .  A
O1443     Co1446   2.141       .  S
O1444      C1451   1.229       .  A
O1444     Co1449   1.857       .  S
O1445      C1452   1.221       .  A
O1445     Co1448   1.874       .  S
Co1446     O1450   2.020       .  S
Co1447     O1450   1.974       .  S
Co1448     O1450   2.096       .  S
Co1449     O1450   2.136       .  S
C1453      C1518   1.511       .  S
C1454      C1472   1.509       .  S
C1455      C1460   1.537       .  S
C1455      C1495   1.532       .  S
C1455      C1497   1.522       .  S
C1455      C1511   1.549       .  S
C1456      C1457   1.530       .  S
C1456      C1492   1.525       .  S
C1456      C1500   1.520       .  S
C1456      C1508   1.542       .  S
C1457      C1458   1.243       .  T
C1459      C1460   1.247       .  T
C1461      C1462   1.238       .  T
C1463      C1464   1.239       .  T
C1465      C1466   1.233       .  T
C1467      C1468   1.242       .  T
C1469      C1470   1.239       .  T
C1471      C1472   1.253       .  T
C1473      C1474   1.237       .  T
C1475      C1983   1.478       .  S
C1475      C1476   1.232       .  T
C1477      C1926   1.455       .  S
C1477      C1478   1.221       .  T
C1479      C1480   1.248       .  T
C1481      C1482   1.224       .  T
C1483      C1667   1.448       .  S
C1483      C1484   1.216       .  T
C1485      C1486   1.215       .  T
C1486      C1695   1.447       .  S
C1487      C1488   1.233       .  T
C1489      C1490   1.223       .  T
C1491      C2196   1.493       .  S
C1491      C1492   1.241       .  T
C1493      C1494   1.245       .  T
C1494      C1605   1.498   1_554  S
C1495      C1496   1.244       .  T
C1496      C1910   1.495       .  S
C1497      C1498   1.239       .  T
C1499      C1561   1.484   1_454  S
C1501      C1578   1.447       .  S
C1501      C1502   1.215       .  T
C1505      C1506   1.233       .  T
C1507      C1508   1.250       .  T
C1509      C1510   1.230       .  T
C1511      C1512   1.254       .  T
C1512      C1834   1.516   1_545  S
C1513      C2286   1.487       .  S
C1513      C1514   1.238       .  T
C1515      C1516   1.228       .  T
C1517      C1518   1.255       .  T
C1519      C1520   1.228       .  T
C1521      C1818   1.523       .  S
C1521      C1819   1.502       .  S
C1521      C1821   1.552       .  S
C1521      C1823   1.501       .  S
O1522      C1530   1.291       .  A
O1522     Co1542   1.931       .  S
O1523      C1531   1.259       .  A
O1523     Co1543   2.014       .  S
O1524      C1532   1.288       .  A
O1524     Co1544   2.024       .  S
O1525      C1533   1.246       .  A
O1525     Co1545   1.908       .  S
O1526      C1532   1.264       .  A
O1526     Co1543   1.850       .  S
O1527      C1533   1.257       .  A
O1527     Co1542   1.934       .  S
O1528      C1531   1.282       .  A
O1528     Co1545   2.081       .  S
O1529      C1530   1.333       .  A
O1529     Co1544   2.200       .  S
C1530      C2424   1.516       .  S
C1531      C1810   1.479       .  S
C1532      C2288   1.390       .  S
C1533      C1756   1.365       .  S
O1534      C1547   1.303       .  A
O1534     Co1542   2.084       .  S
O1535      C1548   1.296       .  A
O1535     Co1543   2.103       .  S
O1536      C1549   1.243       .  A
O1536     Co1544   1.926       .  S
O1537      C1550   1.244       .  A
O1537     Co1545   1.884       .  S
O1538      C1550   1.243       .  A
O1538     Co1543   1.934       .  S
O1539      C1549   1.237       .  A
O1539     Co1542   1.939       .  S
O1540      C1547   1.271       .  A
O1540     Co1545   1.968       .  S
O1541      C1548   1.285       .  A
O1541     Co1544   1.986       .  S
Co1542     O1546   1.888       .  S
Co1543     O1546   1.950       .  S
Co1544     O1546   2.032       .  S
Co1545     O1546   2.023       .  S
O1551      C1559   1.225       .  A
O1551     Co1571   1.889       .  S
O1552      C1560   1.255       .  A
O1552     Co1572   1.938       .  S
O1554      C1562   1.273       .  A
O1554     Co1574   1.972       .  S
O1555      C1561   1.294       .  A
O1555     Co1572   1.985       .  S
O1556      C1562   1.300       .  A
O1556     Co1571   2.083       .  S
O1557      C1560   1.246       .  A
O1557     Co1574   1.913       .  S
C1562      C1808   1.457   1_655  S
O1563      C1576   1.238       .  A
O1563     Co1571   1.917       .  S
O1564      C1577   1.248       .  A
O1564     Co1572   1.959       .  S
O1566      C1579   1.277       .  A
O1566     Co1574   2.012       .  S
O1567      C1579   1.295       .  A
O1567     Co1572   2.068       .  S
O1568      C1578   1.289   1_556  A
O1568     Co1571   1.945       .  S
O1569      C1576   1.234       .  A
O1569     Co1574   1.906       .  S
Co1571     O1575   1.905       .  S
Co1572     O1575   1.894       .  S
Co1573     O1575   2.110       .  S
Co1574     O1575   2.006       .  S
C1576      C1755   1.357       .  S
C1579      C1802   1.488       .  S
O1581      C1589   1.276       .  A
O1581     Co1601   2.071       .  S
O1582      C2198   1.249       .  A
O1582     Co2210   1.928       .  S
O1583      C1591   1.212   1_556  A
O1583     Co1603   1.884       .  S
O1584      C1590   1.272       .  A
O1584     Co1601   1.980       .  S
O1586      C1589   1.250       .  A
O1586     Co1603   1.956       .  S
O1587      C2196   1.274   1_556  A
O1587     Co2210   1.950   1_545  S
C1588      O2195   1.274   1_554  A
C1588      C2099   1.493       .  S
C1589      C1794   1.461       .  S
C1590      O2190   1.249       .  A
C1590      C1620   1.421       .  S
O1593      C1606   1.251       .  A
O1593     Co1601   1.967       .  S
O1594      C2215   1.292   1_556  A
O1594     Co2210   2.009       .  S
O1595      C1608   1.267       .  A
O1595     Co1603   2.005       .  S
O1596      C1608   1.247       .  A
O1596     Co1601   1.894       .  S
O1598      C1605   1.289       .  A
O1598     Co1603   2.120       .  S
O1599      C2214   1.292       .  A
O1599     Co2210   2.115   1_545  S
Co1600     O1604   2.057       .  S
Co1601     O1604   1.991       .  S
Co1602     O2190   1.928       .  S
Co1602     O2195   1.950       .  S
Co1602     O2202   2.008       .  S
Co1602     O2207   2.115       .  S
Co1602     O1604   2.003       .  S
Co1603     O1604   1.993       .  S
C1606      O2207   1.292       .  A
C1606      C2408   1.495       .  S
C1607      O2202   1.292   1_554  A
C1607      C1985   1.404       .  S
C1608      C1738   1.419       .  S
C1609      C1785   1.497       .  S
C1609      C1788   1.484       .  S
C1609      C1789   1.481       .  S
C1609      C1791   1.514       .  S
C1610      C1778   1.519       .  S
C1610      C1780   1.511       .  S
C1610      C1782   1.490       .  S
C1610      C1784   1.540       .  S
C1611      C1770   1.514       .  S
C1611      C1772   1.529       .  S
C1611      C1773   1.523       .  S
C1611      C1775   1.548       .  S
O1612      C2228   1.261       .  A
O1612     Co1632   1.977   1_565  S
O1613      C1621   1.281       .  A
O1613     Co1633   2.038       .  S
O1614      C2230   1.246       .  A
O1614     Co1634   1.957       .  S
O1615      C1623   1.273       .  A
O1615     Co1635   2.001       .  S
O1616      C1622   1.274   1_545  A
O1616     Co1633   2.059       .  S
O1617      C1623   1.282       .  A
O1617     Co1632   2.057       .  S
O1618      C1621   1.259       .  A
O1618     Co1635   1.859       .  S
O1619      C1620   1.238       .  A
O1619     Co1634   1.887       .  S
C1620      O2220   1.261       .  A
C1621      C1728   1.400       .  S
C1622      O2222   1.246       .  A
C1622      C2389   1.455       .  S
C1623      C1786   1.465       .  S
O1624      C1637   1.242       .  A
O1624     Co1632   1.921       .  S
O1625      C1638   1.249   1_545  A
O1625     Co1633   1.906       .  S
O1626      C1639   1.281       .  A
O1626     Co1634   2.066       .  S
O1627      C1640   1.301       .  A
O1627     Co1635   2.137       .  S
O1628      C1640   1.268       .  A
O1628     Co1633   1.943       .  S
O1629      C2247   1.256   1_545  A
O1629     Co1632   1.968       .  S
O1630      C1637   1.239       .  A
O1630     Co1635   1.947       .  S
O1631      C2246   1.264       .  A
O1631     Co1634   1.977       .  S
Co1632     O1636   2.036       .  S
Co1633     O1636   2.017       .  S
Co1634     O2244   2.041       .  S
Co1635     O1636   2.015       .  S
O1636     Co2242   2.041   1_545  S
C1638      O2239   1.264       .  A
C1639      O2237   1.256       .  A
O1641      C1649   1.256       .  A
O1641     Co1661   1.975       .  S
O1642      C1650   1.300       .  A
O1642     Co1662   2.098       .  S
O1644      C1652   1.236       .  A
O1644     Co1664   1.950       .  S
O1645      C1651   1.231       .  A
O1645     Co1662   1.846       .  S
O1646      C1652   1.227       .  A
O1646     Co1661   1.882       .  S
O1647      C1650   1.284       .  A
O1647     Co1664   1.970       .  S
O1653      C1666   1.273       .  A
O1653     Co1661   1.978       .  S
O1654      C1667   1.270       .  A
O1654     Co1662   2.017       .  S
O1656      C1669   1.233       .  A
O1656     Co1664   1.885       .  S
O1657      C1669   1.227       .  A
O1657     Co1662   1.897       .  S
O1658      C1668   1.226       .  A
O1658     Co1661   1.855       .  S
O1659      C1666   1.306       .  A
O1659     Co1664   2.117       .  S
Co1661     O1665   2.091       .  S
Co1662     O1665   2.076       .  S
Co1663     O1665   2.092       .  S
Co1664     O1665   1.968       .  S
C1666      C1777   1.485       .  S
C1669      C1729   1.359       .  S
O1671      C1679   1.307       .  A
O1671     Co1691   2.144       .  S
O1672      C1680   1.240       .  A
O1672     Co1692   1.915   1_565  S
O1673      C1681   1.231       .  A
O1673     Co1693   1.910   1_565  S
O1674      C1680   1.245   1_545  A
O1674     Co1691   1.914       .  S
O1676      C1679   1.263       .  A
O1676     Co1693   1.905       .  S
O1677      C1678   1.278       .  A
O1677     Co1692   1.952       .  S
C1678      C2121   1.487   1_545  S
C1679      C2387   1.478   1_545  S
C1680      C2140   1.390       .  S
C1681      C1911   1.404       .  S
O1683      C1696   1.259       .  A
O1683     Co1691   1.979       .  S
O1684      C1697   1.248       .  A
O1684     Co1692   1.952       .  S
O1685      C1698   1.235       .  A
O1685     Co1693   1.931       .  S
O1686      C1698   1.234       .  A
O1686     Co1691   1.884       .  S
O1688      C1695   1.268       .  A
O1688     Co1693   2.046       .  S
O1689      C1696   1.285       .  A
O1689     Co1692   2.076       .  S
Co1690     O1694   2.132       .  S
Co1691     O1694   2.128       .  S
Co1692     O1694   1.997       .  S
Co1693     O1694   1.991       .  S
C1696      C1769   1.477       .  S
C1698      C1711   1.383       .  S
C1699      C1768   1.523       .  S
C1699      C1797   1.531       .  S
C1699      C1806   1.478       .  S
C1699      C1809   1.508       .  S
C1700      C1765   1.521       .  S
C1700      C1793   1.496       .  S
C1700      C1807   1.491       .  S
C1700      C1813   1.505       .  S
O1701      C1709   1.278       .  A
O1701     Co1721   1.958       .  S
O1702      C1710   1.265       .  A
O1702     Co1722   2.051       .  S
O1703      C1711   1.286       .  A
O1703     Co1723   1.997       .  S
O1704      C1712   1.252       .  A
O1704     Co1724   1.945       .  S
O1705      C1711   1.267       .  A
O1705     Co1722   1.874       .  S
O1706      C1712   1.226       .  A
O1706     Co1721   1.906       .  S
O1707      C1710   1.265       .  A
O1707     Co1724   2.043       .  S
O1708      C1709   1.305       .  A
O1708     Co1723   2.134       .  S
C1709      C1763   1.504       .  S
C1710      C1767   1.489       .  S
C1712      C1739   1.389       .  S
O1713      C1726   1.292       .  A
O1713     Co1721   2.109       .  S
O1714      C1727   1.256       .  A
O1714     Co1722   2.022       .  S
O1715      C1728   1.246       .  A
O1715     Co1723   1.953       .  S
O1716      C1729   1.246       .  A
O1716     Co1724   1.867       .  S
O1717      C1729   1.242       .  A
O1717     Co1722   1.921       .  S
O1718      C1728   1.233       .  A
O1718     Co1721   1.890       .  S
O1719      C1726   1.254       .  A
O1719     Co1724   1.967       .  S
O1720      C1727   1.264       .  A
O1720     Co1723   2.052       .  S
Co1721     O1725   1.917       .  S
Co1722     O1725   1.964       .  S
Co1723     O1725   2.240       .  S
Co1724     O1725   2.109       .  S
C1726      C1766   1.484       .  S
C1727      C1762   1.498       .  S
O1730      C1738   1.235       .  A
O1730     Co1750   1.926       .  S
O1731      C1739   1.221       .  A
O1731     Co1751   1.894       .  S
O1732      C1740   1.323       .  A
O1732     Co1752   2.192       .  S
O1733      C1741   1.313       .  A
O1733     Co1753   2.146       .  S
O1734      C1740   1.277       .  A
O1734     Co1751   1.917       .  S
O1735      C1741   1.284       .  A
O1735     Co1750   1.913       .  S
O1736      C1739   1.244       .  A
O1736     Co1753   1.949       .  S
O1737      C1738   1.248       .  A
O1737     Co1752   1.923       .  S
C1740      C1783   1.506       .  S
C1741      C1792   1.481       .  S
O1742      C1755   1.222       .  A
O1742     Co1750   1.906       .  S
O1743      C1756   1.229       .  A
O1743     Co1751   1.945       .  S
O1744      C1757   1.260       .  A
O1744     Co1752   1.973       .  S
O1745      C1758   1.255       .  A
O1745     Co1753   1.971       .  S
O1746      C1758   1.302       .  A
O1746     Co1751   2.135       .  S
O1747      C1757   1.307       .  A
O1747     Co1750   2.141       .  S
O1748      C1755   1.229       .  A
O1748     Co1753   1.857       .  S
O1749      C1756   1.221       .  A
O1749     Co1752   1.874       .  S
Co1750     O1754   2.020       .  S
Co1751     O1754   1.974       .  S
Co1752     O1754   2.096       .  S
Co1753     O1754   2.137       .  S
C1757      C1822   1.511       .  S
C1758      C1776   1.509       .  S
C1759      C1764   1.537       .  S
C1759      C1799   1.532       .  S
C1759      C1801   1.522       .  S
C1759      C1815   1.549       .  S
C1760      C1761   1.530       .  S
C1760      C1796   1.525       .  S
C1760      C1804   1.520       .  S
C1760      C1812   1.542       .  S
C1761      C1762   1.243       .  T
C1763      C1764   1.247       .  T
C1765      C1766   1.238       .  T
C1767      C1768   1.239       .  T
C1769      C1770   1.233       .  T
C1771      C1772   1.242       .  T
C1773      C1774   1.239       .  T
C1775      C1776   1.253       .  T
C1777      C1778   1.237       .  T
C1779      C2287   1.478       .  S
C1779      C1780   1.232       .  T
C1781      C2230   1.455       .  S
C1781      C1782   1.221       .  T
C1783      C1784   1.248       .  T
C1785      C1786   1.224       .  T
C1787      C1788   1.216       .  T
C1789      C1790   1.215       .  T
C1791      C1792   1.233       .  T
C1793      C1794   1.223       .  T
C1795      C1892   1.493       .  S
C1795      C1796   1.241       .  T
C1797      C1798   1.245       .  T
C1799      C1800   1.244       .  T
C1800      C2214   1.495       .  S
C1801      C1802   1.239       .  T
C1805      C1806   1.215       .  T
C1809      C1810   1.233       .  T
C1811      C1812   1.250       .  T
C1813      C1814   1.230       .  T
C1815      C1816   1.254       .  T
C1816      C2138   1.516   1_545  S
C1817      C1982   1.487   1_556  S
C1817      C1818   1.238       .  T
C1819      C1820   1.228       .  T
C1821      C1822   1.255       .  T
C1823      C1824   1.228       .  T
C1825      C2122   1.523       .  S
C1825      C2123   1.502       .  S
C1825      C2125   1.552       .  S
C1825      C2127   1.501       .  S
O1826      C1834   1.291       .  A
O1826     Co1846   1.931       .  S
O1827      C1835   1.259       .  A
O1827     Co1847   2.014       .  S
O1828      C1836   1.288       .  A
O1828     Co1848   2.024       .  S
O1829      C1837   1.246       .  A
O1829     Co1849   1.908       .  S
O1830      C1836   1.264       .  A
O1830     Co1847   1.850       .  S
O1831      C1837   1.257       .  A
O1831     Co1846   1.934       .  S
O1832      C1835   1.282       .  A
O1832     Co1849   2.081       .  S
O1833      C1834   1.333   1_545  A
O1833     Co1848   2.200   1_545  S
C1835      C2114   1.479       .  S
C1837      C2060   1.365       .  S
O1838      C1851   1.303       .  A
O1838     Co1846   2.084       .  S
O1839      C1852   1.296   1_565  A
O1839     Co1847   2.103       .  S
O1840      C1853   1.243       .  A
O1840     Co1848   1.926       .  S
O1841      C1854   1.244       .  A
O1841     Co1849   1.884       .  S
O1842      C1854   1.243       .  A
O1842     Co1847   1.934       .  S
O1843      C1853   1.237       .  A
O1843     Co1846   1.939       .  S
O1844      C1851   1.271       .  A
O1844     Co1849   1.968       .  S
O1845      C1852   1.285       .  A
O1845     Co1848   1.986   1_545  S
Co1846     O1850   1.888       .  S
Co1847     O1850   1.950       .  S
Co1848     O1850   2.032       .  S
Co1849     O1850   2.023       .  S
O1855      C1863   1.225       .  A
O1855     Co1875   1.889       .  S
O1856      C1864   1.255       .  A
O1856     Co1876   1.938       .  S
O1857      C2169   1.294   1_554  A
O1857     Co2181   2.066   1_554  S
O1858      C1866   1.273       .  A
O1858     Co1878   1.972       .  S
O1859      C1865   1.294       .  A
O1859     Co1876   1.985       .  S
O1860      C1866   1.300       .  A
O1860     Co1875   2.083       .  S
O1861      C1864   1.246       .  A
O1861     Co1878   1.913       .  S
O1862      C2167   1.229   1_554  A
O1862     Co2181   1.892   1_554  S
C1863      O2166   1.229       .  A
C1865      O2161   1.294       .  A
C1865      C2411   1.484   1_655  S
C1866      C2112   1.457   1_655  S
O1867      C1880   1.238       .  A
O1867     Co1875   1.917       .  S
O1868      C1881   1.248       .  A
O1868     Co1876   1.959       .  S
O1869      C2186   1.289       .  A
O1869     Co2181   2.043   1_554  S
O1870      C1883   1.277       .  A
O1870     Co1878   2.012       .  S
O1871      C1883   1.295       .  A
O1871     Co1876   2.068       .  S
O1872      C1882   1.289       .  A
O1872     Co1875   1.945       .  S
O1873      C1880   1.234       .  A
O1873     Co1878   1.906       .  S
O1874      C2185   1.230   1_554  A
O1874     Co2181   1.920   1_554  S
Co1875     O1879   1.905       .  S
Co1876     O1879   1.894       .  S
Co1877     O2161   2.066       .  S
Co1877     O2166   1.892       .  S
Co1877     O2173   2.043       .  S
Co1877     O2178   1.920       .  S
Co1877     O1879   2.110       .  S
Co1878     O1879   2.006       .  S
C1880      C2059   1.357       .  S
C1881      O2178   1.230       .  A
C1881      C2305   1.389       .  S
C1882      O2173   1.289       .  A
C1882      C2413   1.447       .  S
C1883      C2106   1.488       .  S
O1884      C2196   1.294   1_565  A
O1884     Co2208   2.139   1_554  S
O1885      C1893   1.276       .  A
O1885     Co1905   2.071       .  S
O1887      C1895   1.212       .  A
O1887     Co1907   1.884       .  S
O1888      C1894   1.272       .  A
O1888     Co1905   1.980       .  S
O1889      C2199   1.240       .  A
O1889     Co2208   2.007   1_554  S
O1890      C1893   1.250       .  A
O1890     Co1907   1.956       .  S
C1892      O2188   1.294   1_545  A
C1893      C2098   1.461       .  S
C1894      C1924   1.421       .  S
C1895      O2193   1.240       .  A
C1895      C2276   1.376       .  S
O1896      C2213   1.257       .  A
O1896     Co2208   1.990       .  S
O1897      C1910   1.251   1_565  A
O1897     Co1905   1.967       .  S
O1899      C1912   1.267       .  A
O1899     Co1907   2.005       .  S
O1900      C1912   1.247       .  A
O1900     Co1905   1.894       .  S
O1901      C2215   1.278       .  A
O1901     Co2208   1.858   1_554  S
O1902      C1909   1.289       .  A
O1902     Co1907   2.120       .  S
Co1904     O2188   2.139       .  S
Co1904     O2193   2.007       .  S
Co1904     O2200   1.990       .  S
Co1904     O2205   1.858       .  S
Co1904     O1908   2.057       .  S
Co1905     O1908   1.991       .  S
Co1906     O1908   2.003       .  S
Co1907     O1908   1.993       .  S
C1909      O2200   1.257       .  A
C1909      C2406   1.498       .  S
C1911      O2205   1.278       .  A
C1912      C2042   1.419       .  S
C1913      C2089   1.497       .  S
C1913      C2092   1.484       .  S
C1913      C2093   1.481       .  S
C1913      C2095   1.514       .  S
C1914      C2082   1.519       .  S
C1914      C2084   1.511       .  S
C1914      C2086   1.490       .  S
C1914      C2088   1.540       .  S
C1915      C2074   1.514       .  S
C1915      C2076   1.528       .  S
C1915      C2077   1.523       .  S
C1915      C2079   1.548       .  S
O1916     Co1936   1.977       .  S
O1917      C1925   1.281       .  A
O1917     Co1937   2.038       .  S
O1918     Co1938   1.957       .  S
O1919      C1927   1.273       .  A
O1919     Co1939   2.001       .  S
O1920      C1926   1.274       .  A
O1920     Co1937   2.059       .  S
O1921      C1927   1.282       .  A
O1921     Co1936   2.057       .  S
O1922      C1925   1.259       .  A
O1922     Co1939   1.859       .  S
O1923      C1924   1.238       .  A
O1923     Co1938   1.887       .  S
C1925      C2032   1.400       .  S
C1927      C2090   1.465       .  S
O1928      C1941   1.242       .  A
O1928     Co1936   1.921       .  S
O1929      C1942   1.249       .  A
O1929     Co1937   1.906       .  S
O1930      C1943   1.281       .  A
O1930     Co1938   2.066       .  S
O1931      C1944   1.301       .  A
O1931     Co1939   2.137       .  S
O1932      C1944   1.268       .  A
O1932     Co1937   1.943       .  S
O1933     Co1936   1.968       .  S
O1934      C1941   1.239       .  A
O1934     Co1939   1.947       .  S
O1935     Co1938   1.977       .  S
Co1936     O1940   2.036       .  S
Co1937     O1940   2.017       .  S
Co1939     O1940   2.015       .  S
O1945      C1953   1.256   1_554  A
O1945     Co1965   1.975       .  S
O1946      C1954   1.300       .  A
O1946     Co1966   2.098       .  S
O1947      C2259   1.255       .  A
O1947     Co2271   1.928       .  S
O1948      C1956   1.236       .  A
O1948     Co1968   1.950       .  S
O1949      C1955   1.231       .  A
O1949     Co1966   1.846       .  S
O1950      C1956   1.227       .  A
O1950     Co1965   1.882       .  S
O1951      C1954   1.284       .  A
O1951     Co1968   1.970       .  S
O1952      C2257   1.285       .  A
O1952     Co2271   2.082       .  S
C1953      O2256   1.285       .  A
C1955      O2251   1.255   1_554  A
O1957      C1970   1.273       .  A
O1957     Co1965   1.978       .  S
O1958      C1971   1.270       .  A
O1958     Co1966   2.017       .  S
O1959      C2276   1.240       .  A
O1959     Co2271   1.963       .  S
O1960      C1973   1.233       .  A
O1960     Co1968   1.885       .  S
O1961      C1973   1.227       .  A
O1961     Co1966   1.897       .  S
O1962      C1972   1.226       .  A
O1962     Co1965   1.855       .  S
O1963      C1970   1.307       .  A
O1963     Co1968   2.117       .  S
O1964      C2275   1.263       .  A
O1964     Co2271   1.985       .  S
Co1965     O1969   2.091       .  S
Co1966     O1969   2.076       .  S
Co1967     O2251   1.928       .  S
Co1967     O2256   2.082       .  S
Co1967     O2263   1.963       .  S
Co1967     O2268   1.985   1_556  S
Co1967     O1969   2.092   1_556  S
Co1968     O1969   1.968       .  S
C1970      C2081   1.485       .  S
C1971      O2268   1.263       .  A
C1971      C2395   1.448   1_554  S
C1972      O2263   1.240   1_554  A
C1972      C2199   1.376       .  S
C1973      C2033   1.360       .  S
O1974      C2286   1.290       .  A
O1974     Co2298   2.081       .  S
O1975      C1983   1.307       .  A
O1975     Co1995   2.144       .  S
O1976      C1984   1.240       .  A
O1976     Co1996   1.915       .  S
O1977      C1985   1.231       .  A
O1977     Co1997   1.910       .  S
O1978      C1984   1.245       .  A
O1978     Co1995   1.914       .  S
O1979      C2289   1.252       .  A
O1979     Co2298   1.929       .  S
O1980      C1983   1.263       .  A
O1980     Co1997   1.905       .  S
O1981      C1982   1.278       .  A
O1981     Co1996   1.952       .  S
C1982      O2278   1.290   1_554  A
C1985      O2283   1.252   1_554  A
O1986      C2303   1.248       .  A
O1986     Co2298   1.961       .  S
O1987      C2000   1.259       .  A
O1987     Co1995   1.979       .  S
O1988      C2001   1.248       .  A
O1988     Co1996   1.952       .  S
O1989      C2002   1.235       .  A
O1989     Co1997   1.931       .  S
O1990      C2002   1.234       .  A
O1990     Co1995   1.884       .  S
O1991      C2305   1.229       .  A
O1991     Co2298   1.871       .  S
O1992      C1999   1.268       .  A
O1992     Co1997   2.046       .  S
O1993      C2000   1.285       .  A
O1993     Co1996   2.076       .  S
Co1994     O2278   2.081   1_554  S
Co1994     O2283   1.929   1_554  S
Co1994     O2290   1.961   1_554  S
Co1994     O2295   1.871   1_554  S
Co1994     O1998   2.132       .  S
Co1995     O1998   2.128       .  S
Co1996     O1998   1.997       .  S
Co1997     O1998   1.991       .  S
C1999      O2290   1.248   1_554  A
C1999      C2398   1.447   1_554  S
C2000      C2073   1.477       .  S
C2001      O2295   1.229   1_554  A
C2001      C2185   1.389   1_554  S
C2002      C2015   1.383       .  S
C2003      C2072   1.523       .  S
C2003      C2101   1.531       .  S
C2003      C2110   1.478       .  S
C2003      C2113   1.508       .  S
C2004      C2069   1.521       .  S
C2004      C2097   1.496       .  S
C2004      C2111   1.491       .  S
C2004      C2117   1.505       .  S
O2005      C2013   1.278       .  A
O2005     Co2025   1.958       .  S
O2006      C2014   1.265       .  A
O2006     Co2026   2.051       .  S
O2007      C2015   1.286       .  A
O2007     Co2027   1.997       .  S
O2008      C2016   1.252       .  A
O2008     Co2028   1.945       .  S
O2009      C2015   1.267       .  A
O2009     Co2026   1.874       .  S
O2010      C2016   1.226       .  A
O2010     Co2025   1.906       .  S
O2011      C2014   1.265       .  A
O2011     Co2028   2.043       .  S
O2012      C2013   1.305       .  A
O2012     Co2027   2.134       .  S
C2013      C2067   1.504       .  S
C2014      C2071   1.489       .  S
C2016      C2043   1.389       .  S
O2017      C2030   1.292       .  A
O2017     Co2025   2.109       .  S
O2018      C2031   1.256       .  A
O2018     Co2026   2.022       .  S
O2019      C2032   1.246       .  A
O2019     Co2027   1.953       .  S
O2020      C2033   1.246       .  A
O2020     Co2028   1.867       .  S
O2021      C2033   1.242       .  A
O2021     Co2026   1.921       .  S
O2022      C2032   1.233       .  A
O2022     Co2025   1.890       .  S
O2023      C2030   1.254       .  A
O2023     Co2028   1.967       .  S
O2024      C2031   1.264       .  A
O2024     Co2027   2.052       .  S
Co2025     O2029   1.917       .  S
Co2026     O2029   1.964       .  S
Co2027     O2029   2.240       .  S
Co2028     O2029   2.109       .  S
C2030      C2070   1.484       .  S
C2031      C2066   1.498       .  S
O2034      C2042   1.235       .  A
O2034     Co2054   1.926       .  S
O2035      C2043   1.221       .  A
O2035     Co2055   1.894       .  S
O2036      C2044   1.323       .  A
O2036     Co2056   2.193       .  S
O2037      C2045   1.313       .  A
O2037     Co2057   2.146       .  S
O2038      C2044   1.277       .  A
O2038     Co2055   1.916       .  S
O2039      C2045   1.284       .  A
O2039     Co2054   1.913       .  S
O2040      C2043   1.244       .  A
O2040     Co2057   1.949       .  S
O2041      C2042   1.248       .  A
O2041     Co2056   1.923       .  S
C2044      C2087   1.506       .  S
C2045      C2096   1.481       .  S
O2046      C2059   1.222       .  A
O2046     Co2054   1.906       .  S
O2047      C2060   1.229       .  A
O2047     Co2055   1.945       .  S
O2048      C2061   1.260       .  A
O2048     Co2056   1.973       .  S
O2049      C2062   1.255       .  A
O2049     Co2057   1.971       .  S
O2050      C2062   1.302       .  A
O2050     Co2055   2.135       .  S
O2051      C2061   1.307       .  A
O2051     Co2054   2.141       .  S
O2052      C2059   1.229       .  A
O2052     Co2057   1.857       .  S
O2053      C2060   1.221       .  A
O2053     Co2056   1.874       .  S
Co2054     O2058   2.020       .  S
Co2055     O2058   1.974       .  S
Co2056     O2058   2.096       .  S
Co2057     O2058   2.136       .  S
C2061      C2126   1.511       .  S
C2062      C2080   1.509       .  S
C2063      C2068   1.537       .  S
C2063      C2103   1.532       .  S
C2063      C2105   1.522       .  S
C2063      C2119   1.549       .  S
C2064      C2065   1.530       .  S
C2064      C2100   1.525       .  S
C2064      C2108   1.520       .  S
C2064      C2116   1.542       .  S
C2065      C2066   1.243       .  T
C2067      C2068   1.247       .  T
C2069      C2070   1.238       .  T
C2071      C2072   1.239       .  T
C2073      C2074   1.233       .  T
C2075      C2076   1.242       .  T
C2077      C2078   1.239       .  T
C2079      C2080   1.253       .  T
C2081      C2082   1.237       .  T
C2083      C2084   1.232       .  T
C2085      C2086   1.221       .  T
C2087      C2088   1.248       .  T
C2089      C2090   1.224       .  T
C2091      C2275   1.448       .  S
C2091      C2092   1.216       .  T
C2093      C2094   1.215       .  T
C2094      C2303   1.447       .  S
C2095      C2096   1.233       .  T
C2097      C2098   1.223       .  T
C2099      C2100   1.241       .  T
C2101      C2102   1.245       .  T
C2102      C2213   1.498   1_554  S
C2103      C2104   1.244       .  T
C2105      C2106   1.239       .  T
C2107      C2169   1.484   1_454  S
C2109      C2186   1.447       .  S
C2109      C2110   1.215       .  T
C2113      C2114   1.233       .  T
C2115      C2116   1.250       .  T
C2117      C2118   1.230       .  T
C2119      C2120   1.254       .  T
C2121      C2122   1.238       .  T
C2123      C2124   1.228       .  T
C2125      C2126   1.255       .  T
C2127      C2128   1.228       .  T
C2129      C2426   1.523       .  S
C2129      C2427   1.502       .  S
C2129      C2429   1.552       .  S
C2129      C2431   1.501       .  S
O2130      C2138   1.291       .  A
O2130     Co2150   1.931       .  S
O2131      C2139   1.259       .  A
O2131     Co2151   2.014       .  S
O2132      C2140   1.288       .  A
O2132     Co2152   2.024       .  S
O2133      C2141   1.246       .  A
O2133     Co2153   1.908       .  S
O2134      C2140   1.264       .  A
O2134     Co2151   1.850       .  S
O2135      C2141   1.257       .  A
O2135     Co2150   1.934       .  S
O2136      C2139   1.282       .  A
O2136     Co2153   2.081       .  S
O2137      C2138   1.333   1_545  A
O2137     Co2152   2.200   1_545  S
C2139      C2418   1.479       .  S
C2141      C2364   1.365       .  S
O2142      C2155   1.303       .  A
O2142     Co2150   2.084       .  S
O2143      C2156   1.296   1_565  A
O2143     Co2151   2.102       .  S
O2144      C2157   1.243       .  A
O2144     Co2152   1.926       .  S
O2145      C2158   1.244       .  A
O2145     Co2153   1.885       .  S
O2146      C2158   1.243       .  A
O2146     Co2151   1.934       .  S
O2147      C2157   1.237       .  A
O2147     Co2150   1.939       .  S
O2148      C2155   1.271       .  A
O2148     Co2153   1.968       .  S
O2149      C2156   1.285       .  A
O2149     Co2152   1.986   1_545  S
Co2150     O2154   1.888       .  S
Co2151     O2154   1.949       .  S
Co2152     O2154   2.032       .  S
Co2153     O2154   2.023       .  S
O2159      C2167   1.225       .  A
O2159     Co2179   1.889       .  S
O2160      C2168   1.255       .  A
O2160     Co2180   1.938       .  S
O2162      C2170   1.273       .  A
O2162     Co2182   1.972       .  S
O2163      C2169   1.294       .  A
O2163     Co2180   1.985       .  S
O2164      C2170   1.300       .  A
O2164     Co2179   2.083       .  S
O2165      C2168   1.246       .  A
O2165     Co2182   1.913       .  S
C2170      C2416   1.457   1_655  S
O2171      C2184   1.238       .  A
O2171     Co2179   1.917       .  S
O2172      C2185   1.248       .  A
O2172     Co2180   1.959       .  S
O2174      C2187   1.277       .  A
O2174     Co2182   2.012       .  S
O2175      C2187   1.295       .  A
O2175     Co2180   2.068       .  S
O2176      C2186   1.289   1_556  A
O2176     Co2179   1.945       .  S
O2177      C2184   1.234       .  A
O2177     Co2182   1.906       .  S
Co2179     O2183   1.905       .  S
Co2180     O2183   1.894       .  S
Co2181     O2183   2.110       .  S
Co2182     O2183   2.006       .  S
C2184      C2363   1.357       .  S
C2187      C2410   1.488       .  S
O2189      C2197   1.276       .  A
O2189     Co2209   2.071       .  S
O2191      C2199   1.212   1_556  A
O2191     Co2211   1.884       .  S
O2192      C2198   1.272       .  A
O2192     Co2209   1.980       .  S
O2194      C2197   1.250       .  A
O2194     Co2211   1.956       .  S
C2197      C2402   1.461       .  S
C2198      C2228   1.421       .  S
O2201      C2214   1.251   1_565  A
O2201     Co2209   1.967       .  S
O2203      C2216   1.267       .  A
O2203     Co2211   2.005       .  S
O2204      C2216   1.247       .  A
O2204     Co2209   1.894       .  S
O2206      C2213   1.289       .  A
O2206     Co2211   2.120       .  S
Co2208     O2212   2.057       .  S
Co2209     O2212   1.991       .  S
Co2210     O2212   2.003       .  S
Co2211     O2212   1.993       .  S
C2216      C2346   1.419       .  S
C2217      C2393   1.497       .  S
C2217      C2396   1.484       .  S
C2217      C2397   1.481       .  S
C2217      C2399   1.514       .  S
C2218      C2386   1.519       .  S
C2218      C2388   1.511       .  S
C2218      C2390   1.490       .  S
C2218      C2392   1.540       .  S
C2219      C2378   1.514       .  S
C2219      C2380   1.529       .  S
C2219      C2381   1.523       .  S
C2219      C2383   1.548       .  S
O2220     Co2240   1.977       .  S
O2221      C2229   1.281       .  A
O2221     Co2241   2.038       .  S
O2222     Co2242   1.957       .  S
O2223      C2231   1.273       .  A
O2223     Co2243   2.001       .  S
O2224      C2230   1.274       .  A
O2224     Co2241   2.059       .  S
O2225      C2231   1.282       .  A
O2225     Co2240   2.057       .  S
O2226      C2229   1.259       .  A
O2226     Co2243   1.859       .  S
O2227      C2228   1.238       .  A
O2227     Co2242   1.887       .  S
C2229      C2336   1.400       .  S
C2231      C2394   1.465       .  S
O2232      C2245   1.242       .  A
O2232     Co2240   1.921       .  S
O2233      C2246   1.249       .  A
O2233     Co2241   1.906       .  S
O2234      C2247   1.281       .  A
O2234     Co2242   2.066       .  S
O2235      C2248   1.301       .  A
O2235     Co2243   2.137       .  S
O2236      C2248   1.268       .  A
O2236     Co2241   1.942       .  S
O2237     Co2240   1.968       .  S
O2238      C2245   1.239       .  A
O2238     Co2243   1.948       .  S
O2239     Co2242   1.977       .  S
Co2240     O2244   2.036       .  S
Co2241     O2244   2.017       .  S
Co2243     O2244   2.015       .  S
O2249      C2257   1.256       .  A
O2249     Co2269   1.975       .  S
O2250      C2258   1.300       .  A
O2250     Co2270   2.098       .  S
O2252      C2260   1.236       .  A
O2252     Co2272   1.950       .  S
O2253      C2259   1.231       .  A
O2253     Co2270   1.846       .  S
O2254      C2260   1.227       .  A
O2254     Co2269   1.882       .  S
O2255      C2258   1.284       .  A
O2255     Co2272   1.970       .  S
O2261      C2274   1.273       .  A
O2261     Co2269   1.978       .  S
O2262      C2275   1.270       .  A
O2262     Co2270   2.017       .  S
O2264      C2277   1.233       .  A
O2264     Co2272   1.885       .  S
O2265      C2277   1.227       .  A
O2265     Co2270   1.897       .  S
O2266      C2276   1.226       .  A
O2266     Co2269   1.855       .  S
O2267      C2274   1.307       .  A
O2267     Co2272   2.117       .  S
Co2269     O2273   2.091       .  S
Co2270     O2273   2.076       .  S
Co2271     O2273   2.092       .  S
Co2272     O2273   1.968       .  S
C2274      C2385   1.485       .  S
C2277      C2337   1.359       .  S
O2279      C2287   1.307       .  A
O2279     Co2299   2.144       .  S
O2280      C2288   1.240       .  A
O2280     Co2300   1.915       .  S
O2281      C2289   1.231       .  A
O2281     Co2301   1.910       .  S
O2282      C2288   1.245       .  A
O2282     Co2299   1.914       .  S
O2284      C2287   1.263       .  A
O2284     Co2301   1.905       .  S
O2285      C2286   1.278       .  A
O2285     Co2300   1.952       .  S
O2291      C2304   1.259       .  A
O2291     Co2299   1.979       .  S
O2292      C2305   1.248       .  A
O2292     Co2300   1.952       .  S
O2293      C2306   1.235       .  A
O2293     Co2301   1.931       .  S
O2294      C2306   1.234       .  A
O2294     Co2299   1.884       .  S
O2296      C2303   1.268       .  A
O2296     Co2301   2.046       .  S
O2297      C2304   1.285       .  A
O2297     Co2300   2.076       .  S
Co2298     O2302   2.132       .  S
Co2299     O2302   2.128       .  S
Co2300     O2302   1.997       .  S
Co2301     O2302   1.991       .  S
C2304      C2377   1.477       .  S
C2306      C2319   1.383       .  S
C2307      C2376   1.523       .  S
C2307      C2405   1.532       .  S
C2307      C2414   1.478       .  S
C2307      C2417   1.508       .  S
C2308      C2373   1.521       .  S
C2308      C2401   1.496       .  S
C2308      C2415   1.491       .  S
C2308      C2421   1.505       .  S
O2309      C2317   1.278       .  A
O2309     Co2329   1.958       .  S
O2310      C2318   1.265       .  A
O2310     Co2330   2.051       .  S
O2311      C2319   1.286       .  A
O2311     Co2331   1.997       .  S
O2312      C2320   1.252       .  A
O2312     Co2332   1.945       .  S
O2313      C2319   1.267       .  A
O2313     Co2330   1.874       .  S
O2314      C2320   1.226       .  A
O2314     Co2329   1.906       .  S
O2315      C2318   1.265       .  A
O2315     Co2332   2.043       .  S
O2316      C2317   1.305       .  A
O2316     Co2331   2.134       .  S
C2317      C2371   1.504       .  S
C2318      C2375   1.489       .  S
C2320      C2347   1.389       .  S
O2321      C2334   1.292       .  A
O2321     Co2329   2.109       .  S
O2322      C2335   1.256       .  A
O2322     Co2330   2.022       .  S
O2323      C2336   1.246       .  A
O2323     Co2331   1.953       .  S
O2324      C2337   1.246       .  A
O2324     Co2332   1.867       .  S
O2325      C2337   1.242       .  A
O2325     Co2330   1.921       .  S
O2326      C2336   1.233       .  A
O2326     Co2329   1.890       .  S
O2327      C2334   1.254       .  A
O2327     Co2332   1.967       .  S
O2328      C2335   1.264       .  A
O2328     Co2331   2.052       .  S
Co2329     O2333   1.917       .  S
Co2330     O2333   1.964       .  S
Co2331     O2333   2.240       .  S
Co2332     O2333   2.109       .  S
C2334      C2374   1.484       .  S
C2335      C2370   1.498       .  S
O2338      C2346   1.235       .  A
O2338     Co2358   1.926       .  S
O2339      C2347   1.221       .  A
O2339     Co2359   1.894       .  S
O2340      C2348   1.323       .  A
O2340     Co2360   2.192       .  S
O2341      C2349   1.313       .  A
O2341     Co2361   2.146       .  S
O2342      C2348   1.277       .  A
O2342     Co2359   1.916       .  S
O2343      C2349   1.284       .  A
O2343     Co2358   1.913       .  S
O2344      C2347   1.244       .  A
O2344     Co2361   1.949       .  S
O2345      C2346   1.248       .  A
O2345     Co2360   1.923       .  S
C2348      C2391   1.506       .  S
C2349      C2400   1.481       .  S
O2350      C2363   1.222       .  A
O2350     Co2358   1.906       .  S
O2351      C2364   1.229       .  A
O2351     Co2359   1.945       .  S
O2352      C2365   1.260       .  A
O2352     Co2360   1.973       .  S
O2353      C2366   1.255       .  A
O2353     Co2361   1.971       .  S
O2354      C2366   1.302       .  A
O2354     Co2359   2.136       .  S
O2355      C2365   1.307       .  A
O2355     Co2358   2.141       .  S
O2356      C2363   1.229       .  A
O2356     Co2361   1.857       .  S
O2357      C2364   1.221       .  A
O2357     Co2360   1.874       .  S
Co2358     O2362   2.020       .  S
Co2359     O2362   1.974       .  S
Co2360     O2362   2.096       .  S
Co2361     O2362   2.137       .  S
C2365      C2430   1.511       .  S
C2366      C2384   1.509       .  S
C2367      C2372   1.537       .  S
C2367      C2407   1.532       .  S
C2367      C2409   1.522       .  S
C2367      C2423   1.549       .  S
C2368      C2369   1.530       .  S
C2368      C2404   1.525       .  S
C2368      C2412   1.520       .  S
C2368      C2420   1.542       .  S
C2369      C2370   1.244       .  T
C2371      C2372   1.247       .  T
C2373      C2374   1.238       .  T
C2375      C2376   1.239       .  T
C2377      C2378   1.233       .  T
C2379      C2380   1.242       .  T
C2381      C2382   1.239       .  T
C2383      C2384   1.253       .  T
C2385      C2386   1.237       .  T
C2387      C2388   1.232       .  T
C2389      C2390   1.221       .  T
C2391      C2392   1.248       .  T
C2393      C2394   1.224       .  T
C2395      C2396   1.216       .  T
C2397      C2398   1.215       .  T
C2399      C2400   1.233       .  T
C2401      C2402   1.223       .  T
C2403      C2404   1.241       .  T
C2405      C2406   1.245       .  T
C2407      C2408   1.244       .  T
C2409      C2410   1.239       .  T
C2413      C2414   1.215       .  T
C2417      C2418   1.233       .  T
C2419      C2420   1.250       .  T
C2421      C2422   1.230       .  T
C2423      C2424   1.254       .  T
C2425      C2426   1.238       .  T
C2427      C2428   1.228       .  T
C2429      C2430   1.255       .  T
C2431      C2432   1.228       .  T
