geometry optimzed in LAMMPS
_audit_creation_date              2020-11-30 
_audit_creation_method            'lammps2cif' 
_symmetry_space_group_name_H-M    'P1' 
_symmetry_Int_Tables_number       1 
_symmetry_cell_setting            triclinic 
loop_ 
_symmetry_equiv_pos_as_xyz 
  x,y,z 
_cell_length_a                    50.54227738 
_cell_length_b                    51.547279503907134 
_cell_length_c                    39.519909080410905 
_cell_angle_alpha                 71.91884047730854 
_cell_angle_beta                  88.89464045987496 
_cell_angle_gamma                 119.60879522103454 
loop_ 
_atom_site_label 
_atom_site_type_symbol 
_atom_site_fract_x 
_atom_site_fract_y 
_atom_site_fract_z 
_atom_site_charge 
N1          N  0.30740115  0.30155323  0.51478904    -0.03300
C2          C  0.28241061  0.27140698  0.52347539    -0.00700
C3          C  0.26955430  0.25823809  0.06029608    -0.23600
C4          C  0.28735688  0.28098948  0.07467392    -0.23800
C5          C  0.31051706  0.30741582  0.04621128    -0.00800
H6          H  0.24925074  0.23471965  0.07502560     0.13000
H7          H  0.28407493  0.27832882  0.10295999     0.13000
N8          N  0.72573539  0.69914018  0.38038129    -0.03300
C9          C  0.75527876  0.72479140  0.37212818    -0.00700
C10         C  0.76992087  0.73233682  0.33755856    -0.23600
C11         C  0.74897954  0.71048184  0.32422992    -0.23800
C12         C  0.72210269  0.69015582  0.35101228    -0.00800
H13         H  0.79343968  0.75158267  0.32358832     0.13000
H14         H  0.75306048  0.70929952  0.29791077     0.13000
N15         N  0.51754629  0.50990219  0.14236850    -0.36400
N16         N  0.46906351  0.46403367  0.20781467    -0.57000
N17         N  0.50823620  0.49966984  0.25007268    -0.36400
N18         N  0.55757780  0.54386151  0.18527990    -0.57000
C19         C  0.49763198  0.48797595  0.12897890     0.27100
C20         C  0.54443221  0.53024031  0.11702247     0.27100
C21         C  0.48548069  0.47290492  0.27700314     0.27100
C22         C  0.53248794  0.51442263  0.26532723     0.27100
C23         C  0.45301293  0.45446992  0.18262729     0.35800
C24         C  0.44799269  0.44944477  0.23938438     0.35800
C25         C  0.57545398  0.56434700  0.15173458     0.35800
C26         C  0.57057814  0.55847271  0.20878510     0.35800
C27         C  0.51185672  0.49478067  0.09442294    -0.21700
C28         C  0.54122815  0.52140417  0.08683526    -0.21700
C29         C  0.49541720  0.47068580  0.30971027    -0.21700
C30         C  0.52491688  0.49696642  0.30240495    -0.21700
C31         C  0.42166548  0.43334447  0.19842715    -0.22800
C32         C  0.41843451  0.43045593  0.23420124    -0.22800
C33         C  0.60022210  0.59191521  0.15410228    -0.22800
C34         C  0.59710491  0.58822229  0.19014104    -0.22800
C35         C  0.46634069  0.46322232  0.14600720    -0.18100
C36         C  0.57105369  0.55767085  0.11937138    -0.18100
C37         C  0.56040158  0.54426350  0.24711754    -0.18100
C38         C  0.45533268  0.45143397  0.27328728    -0.18100
H39         H  0.50193330  0.48226587  0.07616936     0.14800
H40         H  0.55801047  0.53314972  0.06154036     0.14800
H41         H  0.48266773  0.45218251  0.33625977     0.14800
H42         H  0.53899790  0.50259214  0.32233177     0.14800
H43         H  0.40299711  0.42129637  0.18554353     0.13100
H44         H  0.39675370  0.41579794  0.25411543     0.13100
H45         H  0.61899164  0.61238539  0.13231609     0.13100
H46         H  0.61302035  0.60525013  0.20134524     0.13100
H47         H  0.51199079  0.51280859  0.16573010     0.26300
H48         H  0.50586322  0.50925415  0.22392135     0.26300
N49         N  0.71846677  0.04358581  0.30233843    -0.03300
C50         C  0.74373830  0.04057582  0.30517968    -0.00700
C51         C  0.75849366  0.04648272  0.27147099    -0.23600
C52         C  0.74193990  0.05305118  0.24689906    -0.23800
C53         C  0.71743592  0.05082224  0.26633071    -0.00800
H54         H  0.77888886  0.04545242  0.26558254     0.13000
H55         H  0.74645391  0.05752327  0.21814925     0.13000
N56         N  0.30968269  0.00948583  0.32726021    -0.03300
C57         C  0.28585172  0.01421372  0.33143620    -0.00700
C58         C  0.27101691  0.01237703  0.30252643    -0.23600
C59         C  0.28600918  0.00616162  0.27974353    -0.23800
C60         C  0.30972662  0.00463261  0.29531131    -0.00800
H61         H  0.25095175  0.01457740  0.29886691     0.13000
H62         H  0.28062440  0.00375776  0.25410199     0.13000
N63         N  0.51288190  0.02689655  0.09989912    -0.36400
N64         N  0.55675215  0.03190013  0.04564214    -0.57000
N65         N  0.51563461  0.03032517  0.99438171    -0.36400
N66         N  0.47029335  0.02187509  0.05035440    -0.57000
C67         C  0.53348420  0.02477468  0.12013122     0.27100
C68         C  0.48725601  0.01779483  0.12314921     0.27100
C69         C  0.53631190  0.02721863  0.47603614     0.27100
C70         C  0.49098903  0.02301189  0.47816462     0.27100
C71         C  0.57466515  0.03813593  0.07051643     0.35800
C72         C  0.57551452  0.03830158  0.01549824     0.35800
C73         C  0.45426083  0.02202770  0.07801406     0.35800
C74         C  0.45622555  0.02512806  0.02195515     0.35800
C75         C  0.52100229  0.01467209  0.15663663    -0.21700
C76         C  0.49184738  0.01023521  0.15855066    -0.21700
C77         C  0.52466305  0.01839973  0.44730509    -0.21700
C78         C  0.49615129  0.01580079  0.44861146    -0.21700
C79         C  0.60485998  0.04819943  0.05626585    -0.22800
C80         C  0.60537851  0.04817364  0.02151381    -0.22800
C81         C  0.42960820  0.02494421  0.06733128    -0.22800
C82         C  0.43088644  0.02699420  0.03180046    -0.22800
C83         C  0.56388293  0.03330120  0.10656572    -0.18100
C84         C  0.46059514  0.01799973  0.11334310    -0.18100
C85         C  0.46433029  0.02389688  0.98824145    -0.18100
C86         C  0.56575803  0.03357506  0.98339372    -0.18100
H87         H  0.53185215  0.01110316  0.17957340     0.14800
H88         H  0.47603455  0.00271919  0.18325881     0.14800
H89         H  0.53565114  0.01448484  0.42723873     0.14800
H90         H  0.48098850  0.00939477  0.42982695     0.14800
H91         H  0.62441394  0.05457144  0.06964585     0.13100
H92         H  0.62546113  0.05454582  0.00290237     0.13100
H93         H  0.41234340  0.02527737  0.08353119     0.13100
H94         H  0.41466292  0.02906335  0.01532503     0.13100
H95         H  0.51748752  0.03741526  0.07182163     0.26300
H96         H  0.51966646  0.04013146  0.01436405     0.26300
N97         N  0.96799084  0.28635564  0.50848669    -0.03300
C98         C  0.97027948  0.25980765  0.01880582    -0.00700
C99         C  0.96194996  0.24455229  0.05620152    -0.23600
C100        C  0.95444111  0.26216059  0.06963407    -0.23800
C101        C  0.95868511  0.28781406  0.03999326    -0.00800
H102        H  0.96212105  0.22334714  0.07203769     0.13000
H103        H  0.94834753  0.25774595  0.09810736     0.13000
N104        N  0.02255036  0.71393340  0.36811677    -0.03300
C105        C  0.03158608  0.74544671  0.35547646    -0.00700
C106        C  0.03419949  0.75670918  0.31818852    -0.23600
C107        C  0.02639974  0.73145787  0.30739049    -0.23800
C108        C  0.01946457  0.70556682  0.33834718    -0.00800
H109        H  0.04011833  0.78050649  0.30084681     0.13000
H110        H  0.02612632  0.73198049  0.27980954     0.13000
N111        N  0.00521794  0.49790065  0.24016962    -0.36400
N112        N  0.00709820  0.54686591  0.17596515    -0.57000
N113        N  0.00002652  0.50775854  0.13330818    -0.36400
N114        N  0.99472804  0.45726774  0.19834971    -0.57000
C115        C  0.00273956  0.51676558  0.25580727     0.27100
C116        C  0.99720684  0.46997575  0.26729389     0.27100
C117        C  0.99796430  0.53132061  0.10854014     0.27100
C118        C  0.99102206  0.48382371  0.12043165     0.27100
C119        C  0.01260457  0.56234345  0.19947733     0.35800
C120        C  0.01096937  0.56806534  0.14290730     0.35800
C121        C  0.99649796  0.43858396  0.22985543     0.35800
C122        C  0.99385186  0.44385019  0.17359714     0.35800
C123        C  0.99387318  0.50094643  0.29330678    -0.21700
C124        C  0.99028234  0.47147505  0.30051852    -0.21700
C125        C  0.98810604  0.52245991  0.07922450    -0.21700
C126        C  0.98371545  0.49256736  0.08671717    -0.21700
C127        C  0.01965582  0.59344422  0.18131787    -0.22800
C128        C  0.01870483  0.59708584  0.14551373    -0.22800
C129        C  0.99646389  0.41301292  0.22519290    -0.22800
C130        C  0.99463886  0.41624820  0.18966186    -0.22800
C131        C  0.00883289  0.54813788  0.23757562    -0.18100
C132        C  0.99637513  0.44320588  0.26332365    -0.18100
C133        C  0.99042686  0.45487531  0.13732931    -0.18100
C134        C  0.00576734  0.56112633  0.11082237    -0.18100
H135        H  0.99013280  0.50958193  0.31353256     0.14800
H136        H  0.98304533  0.45310037  0.32729651     0.14800
H137        H  0.98451695  0.53612320  0.05480987     0.14800
H138        H  0.97619166  0.47896073  0.06909886     0.14800
H139        H  0.02444966  0.61148826  0.19276750     0.13100
H140        H  0.02263528  0.61846494  0.12402191     0.13100
H141        H  0.99727484  0.39377973  0.24537164     0.13100
H142        H  0.99367397  0.39989977  0.17722952     0.13100
H143        H  0.01455305  0.50478826  0.21304588     0.26300
H144        H  0.00990838  0.50923166  0.15587658     0.26300
O145        O  0.05772067  0.00427334  0.41422511    -0.88200
C146        C  0.97640908  0.94076732  0.49099620     0.87800
Mg147      Mg  0.09194535  0.04959865  0.41736656     1.58100
O148        O  0.96736310  0.98208726  0.40681505    -0.87900
O149        O  0.02836969  0.98529067  0.37750473    -0.75200
C150        C  0.01089921  0.11395506  0.44471937     0.92900
O151        O  0.04699635  0.99194419  0.49957254    -0.75100
O152        O  0.03547752  0.11381540  0.45105706    -0.82600
Mg153      Mg  0.04168742  0.96277979  0.46340938     1.58000
C154        C  0.91188270  0.02167163  0.40567371     0.92800
O155        O  0.03703635  0.92865662  0.43424018    -0.80800
H156        H  0.97195733  0.99356012  0.35297307    -0.06200
C157        C  0.97262230  0.01918613  0.48539476     0.87800
O158        O  0.07307713  0.07585855  0.37675538    -0.75300
O159        O  0.99443971  0.95139458  0.46189995    -0.88100
O160        O  0.90984788  0.99461373  0.41844088    -0.80900
C161        C  0.90223573  0.90152935  0.44709220     0.92900
C162        C  0.01616469  0.90837706  0.42288568     0.92800
Mg163      Mg  0.98638535  0.05939904  0.40518445     1.58000
O164        O  0.98984651  0.09300936  0.43430790    -0.80800
O165        O  0.98181515  0.03035118  0.36948080    -0.75100
O166        O  0.92891317  0.90498407  0.44108925    -0.80900
O167        O  0.09166755  0.97505490  0.46349877    -0.82600
O168        O  0.09943219  0.11762156  0.43019911    -0.80900
C169        C  0.97322366  0.00134596  0.37565423     0.87200
O170        O  0.03343861  0.07081142  0.40783190    -0.88100
O171        O  0.96954321  0.01793938  0.45488274    -0.88200
O172        O  0.99883159  0.03741427  0.49142119    -0.75200
Mg173      Mg  0.97927132  0.94649252  0.41228155     1.58000
O174        O  0.89927216  0.92425091  0.44887842    -0.82600
H175        H  0.07455105  0.01899130  0.36121017    -0.06300
O176        O  0.06010715  0.04004312  0.46311145    -0.87900
H177        H  0.05560546  0.02786411  0.01713584    -0.06200
H178        H  0.04861123  0.09591434  0.35429384    -0.06300
C179        C  0.05474175  0.02066051  0.49402818     0.87200
C180        C  0.05460160  0.00337459  0.38359455     0.87800
C181        C  0.05155999  0.08168143  0.37876305     0.87800
H182        H  0.95246795  0.00382894  0.00754625    -0.06300
O183        O  0.95474933  0.94645002  0.49289689    -0.75400
Mg184      Mg  0.04824722  0.07602285  0.45730698     1.58000
H185        H  0.97948029  0.92677222  0.51556375    -0.06300
C186        C  0.11696773  0.00111583  0.45926732     0.92800
O187        O  0.12753986  0.09701044  0.42159842    -0.82600
C188        C  0.12564189  0.11986035  0.42494252     0.92900
O189        O  0.99180397  0.90896070  0.41667406    -0.82600
Mg190      Mg  0.93535090  0.97235647  0.45237987     1.58200
O191        O  0.11802938  0.02765021  0.45112087    -0.80900
O192        O  0.93709073  0.04780368  0.40144072    -0.82600
C193        C  0.99867232  0.83284338  0.40710435    -0.10700
C194        C  0.02646549  0.83321173  0.41050459     0.06500
C195        C  0.05090870  0.85848980  0.41798923    -0.09400
C196        C  0.04762828  0.88290826  0.42192960    -0.11100
C197        C  0.01996383  0.88283722  0.41797189    -0.00900
C198        C  0.99550078  0.85741837  0.41061598    -0.10000
C199        C  0.03069893  0.80885494  0.40291583     0.06500
H200        H  0.07260417  0.85938917  0.42067157     0.08400
H201        H  0.06687243  0.90196823  0.42783918     0.11900
H202        H  0.97381668  0.85645273  0.40760316     0.12100
H203        H  0.97965970  0.81397302  0.40067925     0.08400
C204        C  0.00706129  0.77612841  0.41705960    -0.10700
C205        C  0.00877991  0.75428138  0.40445218    -0.10000
C206        C  0.03396400  0.76498237  0.37721050    -0.00900
C207        C  0.05856074  0.79715358  0.36506828    -0.11100
C208        C  0.05708217  0.81882469  0.37799559    -0.09500
H209        H  0.98658432  0.76779810  0.43653192     0.08400
H210        H  0.98931899  0.72970770  0.41377726     0.12100
H211        H  0.07806186  0.80596798  0.34378149     0.11900
H212        H  0.07553564  0.84387171  0.36645994     0.08400
C213        C  0.97913089  0.57799491  0.29583679    -0.10700
C214        C  0.00688078  0.60164276  0.30120640     0.06500
C215        C  0.03532002  0.60613955  0.28726690    -0.09400
C216        C  0.03603010  0.58843070  0.26700672    -0.11100
C217        C  0.00836238  0.56607792  0.26031727    -0.00900
C218        C  0.97990409  0.56054626  0.27538837    -0.10000
C219        C  0.00643630  0.62405658  0.31721420     0.06500
H220        H  0.05712698  0.62437803  0.29052451     0.08400
H221        H  0.05815422  0.59270994  0.25575197     0.11900
H222        H  0.95833021  0.54297677  0.27086293     0.12100
H223        H  0.95682716  0.57353385  0.30671192     0.08400
C224        C  0.98686636  0.63597808  0.30731646    -0.10700
C225        C  0.98963112  0.66090316  0.31689202    -0.10000
C226        C  0.01182066  0.67439393  0.33680636    -0.00900
C227        C  0.03006013  0.66126990  0.34891748    -0.11100
C228        C  0.02742925  0.63627693  0.33912600    -0.09500
H229        H  0.97078063  0.62756870  0.29003891     0.08400
H230        H  0.97554461  0.67090668  0.30700071     0.12100
H231        H  0.04765161  0.67167401  0.36386452     0.11900
H232        H  0.04260997  0.62737126  0.34748020     0.08400
C233        C  0.03893931  0.68487550  0.46006099    -0.10700
C234        C  0.01332436  0.65314152  0.47549925     0.06500
C235        C  0.98996348  0.64240331  0.45556379    -0.09400
C236        C  0.99262630  0.66256219  0.42070709    -0.11100
C237        C  0.01861895  0.69392214  0.40503737    -0.00900
C238        C  0.04149261  0.70504436  0.42526844    -0.10000
C239        C  0.01172330  0.63116368  0.01150659     0.06500
H240        H  0.97006871  0.61806127  0.46643615     0.08400
H241        H  0.97456550  0.65357387  0.40572400     0.11900
H242        H  0.06179201  0.72909264  0.41366296     0.12100
H243        H  0.05714334  0.69405921  0.47481287     0.08400
C244        C  0.03848088  0.63092990  0.02035157    -0.10700
C245        C  0.03659411  0.60864369  0.05299138    -0.10000
C246        C  0.00799636  0.58628222  0.07753424    -0.00900
C247        C  0.98135760  0.58685279  0.06937121    -0.11100
C248        C  0.98317762  0.60904474  0.03663082    -0.09500
H249        H  0.06072782  0.64729348  0.00147780     0.08400
H250        H  0.05733037  0.60837905  0.05881820     0.12100
H251        H  0.95908723  0.56969482  0.08804682     0.11900
H252        H  0.96221824  0.60880497  0.03087721     0.08400
C253        C  0.01406356  0.22767732  0.98764927    -0.10700
C254        C  0.99552730  0.21271466  0.46540212     0.06500
C255        C  0.97154908  0.21834973  0.45582183    -0.09400
C256        C  0.96470927  0.23641115  0.47057589    -0.11100
C257        C  0.98176820  0.24902065  0.49500337    -0.00900
C258        C  0.00717949  0.24546225  0.00234251    -0.10000
C259        C  0.99976786  0.18902801  0.45568451     0.06500
H260        H  0.95731656  0.20777452  0.43813528     0.08400
H261        H  0.94494294  0.23872648  0.46484803     0.11900
H262        H  0.02039876  0.25478563  0.02143994     0.12100
H263        H  0.03238298  0.22368119  0.99616307     0.08400
C264        C  0.02939720  0.19301070  0.45068813    -0.10700
C265        C  0.03289046  0.16855089  0.44753210    -0.10000
C266        C  0.00696282  0.13971495  0.44838022    -0.00900
C267        C  0.97752979  0.13629481  0.45137118    -0.11100
C268        C  0.97392583  0.16054731  0.45527115    -0.09500
H269        H  0.04997827  0.21490695  0.44981450     0.08400
H270        H  0.05599060  0.17229780  0.44427238     0.12100
H271        H  0.95711807  0.11447469  0.45171180     0.11900
H272        H  0.95069747  0.15634132  0.45946850     0.08400
C273        C  0.00334166  0.41354373  0.08032554    -0.10700
C274        C  0.97259788  0.39131620  0.07974127     0.06500
C275        C  0.94800430  0.39164504  0.09657511    -0.09400
C276        C  0.95389085  0.41261051  0.11483107    -0.11100
C277        C  0.98446488  0.43397842  0.11615231    -0.00900
C278        C  0.00919980  0.43475837  0.09827407    -0.10000
C279        C  0.96612928  0.36606315  0.06469945     0.06500
H280        H  0.92411532  0.37535088  0.09613668     0.08400
H281        H  0.93459011  0.41193232  0.12835862     0.11900
H282        H  0.03294478  0.45117300  0.09912835     0.12100
H283        H  0.02284729  0.41369538  0.06826093     0.08400
C284        C  0.98678889  0.37215447  0.03478808    -0.10700
C285        C  0.98314299  0.34702473  0.02464602    -0.10000
C286        C  0.95858810  0.31540614  0.04398820    -0.00900
C287        C  0.93678078  0.30969905  0.07212192    -0.11100
C288        C  0.94051435  0.33464885  0.08243485    -0.09500
H289        H  0.00647750  0.39613004  0.02009871     0.08400
H290        H  0.00070534  0.35209851  0.00333337     0.12100
H291        H  0.91771179  0.28550681  0.08755077     0.11900
H292        H  0.92431518  0.32880285  0.10584448     0.08400
C293        C  0.95257536  0.33268527  0.42629752    -0.10700
C294        C  0.98099034  0.34922375  0.40130498     0.06500
C295        C  0.00497080  0.34414534  0.41207629    -0.09400
C296        C  0.00059438  0.32304599  0.44707072    -0.11100
C297        C  0.97235120  0.30703278  0.47197986    -0.00900
C298        C  0.94839707  0.31194825  0.46132420    -0.10000
C299        C  0.98574749  0.37234095  0.36459929     0.06500
H300        H  0.02704390  0.35637584  0.39337661     0.08400
H301        H  0.01937711  0.31965014  0.45501378     0.11900
H302        H  0.92647401  0.29972690  0.48031316     0.12100
H303        H  0.93381226  0.33637919  0.41906859     0.08400
C304        C  0.96178550  0.36531970  0.34490536    -0.10700
C305        C  0.96560053  0.38789842  0.31139776    -0.10000
C306        C  0.99346448  0.41786161  0.29690680    -0.00900
C307        C  0.01766522  0.42470943  0.31607041    -0.11100
C308        C  0.01386650  0.40217145  0.34958307    -0.09500
H309        H  0.93998379  0.34243599  0.35556499     0.08400
H310        H  0.94658293  0.38232553  0.29712618     0.12100
H311        H  0.03918775  0.44787910  0.30546696     0.11900
H312        H  0.03256938  0.40849600  0.36429632     0.08400
C313        C  0.23856492  0.98834696  0.42287387    -0.10700
C314        C  0.23213823  0.01294001  0.41658859     0.06500
C315        C  0.24945265  0.04095049  0.38526640    -0.09400
C316        C  0.26976338  0.04270025  0.35897337    -0.11100
C317        C  0.27366988  0.01681021  0.36369663    -0.00900
C318        C  0.25925882  0.99032322  0.39661007    -0.10000
C319        C  0.20396103  0.00741843  0.43812555     0.06500
H320        H  0.24509815  0.06030068  0.37920523     0.08400
H321        H  0.28053105  0.06323286  0.33357818     0.11900
H322        H  0.26179397  0.96996958  0.40056088     0.12100
H323        H  0.22602528  0.96666004  0.44692487     0.08400
C324        C  0.17571528  0.97775154  0.44783171    -0.10700
C325        C  0.14744829  0.97477211  0.45848887    -0.10000
C326        C  0.14665063  0.00142395  0.45953585    -0.00900
C327        C  0.17513198  0.03010042  0.45369197    -0.11100
C328        C  0.20344929  0.03302024  0.44323441    -0.09500
H329        H  0.17502805  0.95751259  0.44408203     0.08400
H330        H  0.12606586  0.95228042  0.46283709     0.12100
H331        H  0.17549831  0.05104668  0.45463157     0.11900
H332        H  0.22480829  0.05600905  0.43680349     0.08400
C333        C  0.38647099  0.02265521  0.24936468    -0.10700
C334        C  0.37630567  0.00244007  0.22925921     0.09600
C335        C  0.34429708  0.98044395  0.23469032    -0.09400
C336        C  0.32287143  0.97993975  0.25806326    -0.11100
C337        C  0.33292030  0.00132586  0.27659260    -0.00900
C338        C  0.36494860  0.02224219  0.27266363    -0.10000
C339        C  0.39852240  0.00613441  0.20037328     0.06500
H340        H  0.33565115  0.96480328  0.21937373     0.08400
H341        H  0.29826199  0.96367857  0.26053351     0.11900
H342        H  0.37332148  0.03943849  0.28601463     0.12100
H343        H  0.41102996  0.03957820  0.24610007     0.08400
C344        C  0.42250074  0.03693861  0.17726284    -0.10700
C345        C  0.44220721  0.04074249  0.14848757    -0.10000
C346        C  0.43819688  0.01387022  0.14221311    -0.00900
C347        C  0.41449605  0.98307197  0.16518242    -0.11100
C348        C  0.39480936  0.97920839  0.19409375    -0.09500
H349        H  0.42563356  0.05816765  0.18093831     0.08400
H350        H  0.46067517  0.06462945  0.13112883     0.12100
H351        H  0.41156729  0.96210076  0.16095808     0.11900
H352        H  0.37678144  0.95517933  0.21163065     0.08400
C353        C  0.42424142  0.04712349  0.41542217    -0.10700
C354        C  0.39862986  0.01700295  0.41873173     0.06500
C355        C  0.39553372  0.98918276  0.44446065    -0.09400
C356        C  0.41730257  0.99144098  0.46650015    -0.11100
C357        C  0.44261643  0.02150238  0.46316975    -0.00900
C358        C  0.44601720  0.04933016  0.43747675    -0.10000
C359        C  0.37514029  0.01461041  0.39568453     0.06500
H360        H  0.37588870  0.96566792  0.44815419     0.08400
H361        H  0.41419911  0.96977614  0.48656749     0.11900
H362        H  0.46533504  0.07272905  0.43483365     0.12100
H363        H  0.42757731  0.06899966  0.39561280     0.08400
C364        C  0.36582988  0.03708170  0.38733683    -0.10700
C365        C  0.34414430  0.03513553  0.36526816    -0.10000
C366        C  0.33106620  0.01056897  0.35125039    -0.00900
C367        C  0.33987795  0.98776060  0.36003254    -0.11100
C368        C  0.36180573  0.98985357  0.38182018    -0.09500
H369        H  0.37521698  0.05614893  0.39798533     0.08400
H370        H  0.33797080  0.05319412  0.35858460     0.12100
H371        H  0.32993402  0.96845754  0.34976613     0.11900
H372        H  0.36866150  0.97234544  0.38734659     0.08400
C373        C  0.79864543  0.05142328  0.36814733    -0.10700
C374        C  0.80129330  0.02459187  0.37267857     0.06500
C375        C  0.77837980  0.99961470  0.36322377    -0.09400
C376        C  0.75558915  0.00284470  0.34634004    -0.11100
C377        C  0.75531763  0.03121742  0.33797725    -0.00900
C378        C  0.77598498  0.05480805  0.35066442    -0.10000
C379        C  0.82939633  0.02403096  0.38314868     0.06500
H380        H  0.77955760  0.97871542  0.36577497     0.08400
H381        H  0.74040029  0.98470324  0.33593148     0.11900
H382        H  0.77665292  0.07719160  0.34383826     0.12100
H383        H  0.81529088  0.07077140  0.37598698     0.08400
C384        C  0.85898185  0.05248361  0.37164104    -0.10700
C385        C  0.88571351  0.05174073  0.37869480    -0.10000
C386        C  0.88370905  0.02249218  0.39702663    -0.00900
C387        C  0.85420306  0.99407299  0.40870924    -0.11100
C388        C  0.82743602  0.99485019  0.40210538    -0.09500
H389        H  0.86172084  0.07536955  0.35624504     0.08400
H390        H  0.90803348  0.07410793  0.36940915     0.12100
H391        H  0.85168857  0.97114850  0.42342065     0.11900
H392        H  0.80516228  0.97246585  0.41196901     0.08400
C393        C  0.61923591  0.06789367  0.16538085    -0.10700
C394        C  0.62364833  0.04265017  0.18361366     0.06500
C395        C  0.60838118  0.01429567  0.17622958    -0.09400
C396        C  0.58945547  0.01147803  0.15055463    -0.11100
C397        C  0.58532683  0.03684502  0.13222700    -0.00900
C398        C  0.60000007  0.06489723  0.14008948    -0.10000
C399        C  0.64616327  0.04687886  0.20788666     0.06500
H400        H  0.61176361  0.99469070  0.18963558     0.08400
H401        H  0.57791240  0.98952791  0.14505565     0.11900
H402        H  0.59657773  0.08444882  0.12654155     0.12100
H403        H  0.63076003  0.08993705  0.17068979     0.08400
C404        C  0.67666373  0.07354979  0.19499717    -0.10700
C405        C  0.69937686  0.07578615  0.21540251    -0.10000
C406        C  0.69193602  0.05170903  0.24936594    -0.00900
C407        C  0.66102910  0.02594772  0.26338114    -0.11100
C408        C  0.63830138  0.02340771  0.24260844    -0.09500
H409        H  0.68332762  0.09178722  0.16821211     0.08400
H410        H  0.72315717  0.09567021  0.20396334     0.12100
H411        H  0.65492779  0.00684674  0.28925487     0.11900
H412        H  0.61485016  0.00268086  0.25309159     0.08400
C413        C  0.63368381  0.06652459  0.40669277    -0.10700
C414        C  0.63257464  0.03848026  0.40723418     0.06500
C415        C  0.60857215  0.00874434  0.43263627    -0.09400
C416        C  0.58669578  0.00718317  0.45687194    -0.11100
C417        C  0.58807185  0.03522956  0.45607579    -0.00900
C418        C  0.61161251  0.06486954  0.43066353    -0.10000
C419        C  0.65594594  0.04029427  0.38103382     0.06500
H420        H  0.60641004  0.98655611  0.43361196     0.08400
H421        H  0.56871875  0.98407632  0.47640443     0.11900
H422        H  0.61324473  0.08680702  0.42990945     0.12100
H423        H  0.65198564  0.08995871  0.38821899     0.08400
C424        C  0.66847293  0.06424262  0.34593430    -0.10700
C425        C  0.68967007  0.06576390  0.32101432    -0.10000
C426        C  0.69860662  0.04301976  0.32986888    -0.00900
C427        C  0.68677377  0.01939671  0.36507824    -0.11100
C428        C  0.66576358  0.01810058  0.39040426    -0.09500
H429        H  0.66141558  0.08154777  0.33717774     0.08400
H430        H  0.69885406  0.08466163  0.29436472     0.12100
H431        H  0.69313673  0.00149029  0.37272193     0.11900
H432        H  0.65722298  0.99965398  0.41731777     0.08400
C433        C  0.81988143  0.77468406  0.41190831    -0.10700
C434        C  0.80692558  0.78816833  0.42728312     0.06500
C435        C  0.77521061  0.77748752  0.42814088    -0.09400
C436        C  0.75736211  0.75485996  0.41259706    -0.11100
C437        C  0.77103772  0.74282075  0.39568878    -0.00900
C438        C  0.80220635  0.75239195  0.39634166    -0.10000
C439        C  0.82755025  0.81502409  0.43932765     0.06500
H440        H  0.76446468  0.78726045  0.43992499     0.08400
H441        H  0.73352250  0.74829500  0.41187890     0.11900
H442        H  0.81335635  0.74359833  0.38332105     0.12100
H443        H  0.84427246  0.78263063  0.41007645     0.08400
C444        C  0.85202767  0.81503004  0.45569888    -0.10700
C445        C  0.87529056  0.84261370  0.46029200    -0.10000
C446        C  0.87439755  0.87076212  0.44935635    -0.00900
C447        C  0.84862112  0.87008677  0.43576775    -0.11100
C448        C  0.82549137  0.84253020  0.43062073    -0.09500
H449        H  0.85396702  0.79405795  0.46353745     0.08400
H450        H  0.89470731  0.84231613  0.47111158     0.12100
H451        H  0.84744114  0.89152555  0.42677797     0.11900
H452        H  0.80713973  0.84350640  0.41769157     0.08400
C453        C  0.61996359  0.56860289  0.30593952    -0.10700
C454        C  0.62161748  0.59619391  0.30789617     0.06500
C455        C  0.60155331  0.60531926  0.29131309    -0.09400
C456        C  0.58112445  0.58791249  0.27243420    -0.11100
C457        C  0.58052450  0.56124651  0.26942752    -0.00900
C458        C  0.59983497  0.55150122  0.28661319    -0.10000
C459        C  0.64586484  0.61683705  0.32437380     0.06500
H460        H  0.60245107  0.62665567  0.29162872     0.08400
H461        H  0.56637936  0.59576313  0.25923458     0.11900
H462        H  0.59953052  0.53085007  0.28469154     0.12100
H463        H  0.63456819  0.56045088  0.31890432     0.08400
C464        C  0.64045659  0.63424326  0.34198801    -0.10700
C465        C  0.66470871  0.65681351  0.35294932    -0.10000
C466        C  0.69471790  0.66207564  0.34705899    -0.00900
C467        C  0.69969763  0.64354201  0.33119657    -0.11100
C468        C  0.67569055  0.62132394  0.31991873    -0.09500
H469        H  0.61772850  0.63122263  0.34622985     0.08400
H470        H  0.66032688  0.67146369  0.36377360     0.12100
H471        H  0.72270065  0.64733786  0.32595181     0.11900
H472        H  0.68107237  0.60895046  0.30592507     0.08400
C473        C  0.62308733  0.63147949  0.03483030    -0.10700
C474        C  0.64181159  0.62251553  0.02070004     0.06500
C475        C  0.63770139  0.59237128  0.04060681    -0.09400
C476        C  0.61540434  0.57181858  0.07306170    -0.11100
C477        C  0.59607213  0.58043302  0.08600990    -0.00900
C478        C  0.60024034  0.61050968  0.06680366    -0.10000
C479        C  0.66444024  0.64369769  0.48486726     0.06500
H480        H  0.65076455  0.58387545  0.53081555     0.08400
H481        H  0.61257676  0.54870988  0.08760806     0.11900
H482        H  0.58572651  0.61771043  0.07660650     0.12100
H483        H  0.62591173  0.65468990  0.02128516     0.08400
C484        C  0.65952685  0.66510831  0.45741809    -0.10700
C485        C  0.68006684  0.68386943  0.42349817    -0.10000
C486        C  0.70542184  0.68102264  0.41574642    -0.00900
C487        C  0.71100315  0.66044967  0.44292887    -0.11100
C488        C  0.69095983  0.64221662  0.47720414    -0.09500
H489        H  0.63941070  0.66695579  0.46155306     0.08400
H490        H  0.67596650  0.70033663  0.40303594     0.12100
H491        H  0.73089608  0.65850332  0.43745277     0.11900
H492        H  0.69644084  0.62704886  0.49759531     0.08400
C493        C  0.17834170  0.19756595  0.43971524    -0.10700
C494        C  0.20556116  0.19668291  0.44331073     0.06500
C495        C  0.20760520  0.17270313  0.43581338    -0.09400
C496        C  0.18239210  0.14906078  0.42721625    -0.11100
C497        C  0.15435475  0.14864187  0.42608017    -0.00900
C498        C  0.15302670  0.17380045  0.43132299    -0.10000
C499        C  0.22988845  0.21813178  0.45904145     0.06500
H500        H  0.22835365  0.17153685  0.43790834     0.08400
H501        H  0.18435125  0.13012139  0.42337785     0.11900
H502        H  0.13190878  0.17415669  0.93056886     0.12100
H503        H  0.17584566  0.21541728  0.94536767     0.08400
C504        C  0.23856419  0.25036589  0.94976592    -0.10700
C505        C  0.25773211  0.26885315  0.96882146    -0.10000
C506        C  0.26832124  0.25510810  0.49784892    -0.00900
C507        C  0.26069659  0.22342308  0.50598181    -0.11100
C508        C  0.24198104  0.20524878  0.48661593    -0.09500
H509        H  0.22968038  0.26095027  0.92859887     0.08400
H510        H  0.26276251  0.29304992  0.96243814     0.12100
H511        H  0.26816944  0.21226122  0.52846428     0.11900
H512        H  0.23536009  0.18039734  0.49486984     0.08400
C513        C  0.39386622  0.37493405  0.34938113    -0.10700
C514        C  0.38718989  0.38686618  0.37381781     0.06500
C515        C  0.40198848  0.42036514  0.36373832    -0.09400
C516        C  0.42318185  0.44120246  0.33057085    -0.11100
C517        C  0.43067286  0.42912212  0.30707649    -0.00900
C518        C  0.41572831  0.39580235  0.31674586    -0.10000
C519        C  0.36588658  0.36452683  0.41009397     0.06500
H520        H  0.39801722  0.43066699  0.38184783     0.08400
H521        H  0.43449235  0.46686395  0.32365343     0.11900
H522        H  0.42121544  0.38593375  0.29911615     0.12100
H523        H  0.38241104  0.34940493  0.35546853     0.08400
C524        C  0.34803576  0.37260474  0.42755555    -0.10700
C525        C  0.32907680  0.35205991  0.46213497    -0.10000
C526        C  0.32697802  0.32276392  0.47946873    -0.00900
C527        C  0.34416748  0.31424975  0.46218412    -0.11100
C528        C  0.36374730  0.33506318  0.42808947    -0.09500
H529        H  0.34843865  0.39464326  0.41449781     0.08400
H530        H  0.31566207  0.35871021  0.47525455     0.12100
H531        H  0.34285618  0.29173408  0.47555470     0.11900
H532        H  0.37763087  0.32820680  0.41628385     0.08400
C533        C  0.39041835  0.37109371  0.05098084    -0.10700
C534        C  0.38254473  0.38470335  0.07225099     0.06500
C535        C  0.35114001  0.37484062  0.08138954    -0.09400
C536        C  0.32802391  0.35078444  0.07127964    -0.11100
C537        C  0.33573123  0.33647003  0.05109673    -0.00900
C538        C  0.36722215  0.34734907  0.04025422    -0.10000
C539        C  0.40625477  0.40692403  0.08770352     0.06500
H540        H  0.34423580  0.38452406  0.09806422     0.08400
H541        H  0.30388399  0.34258904  0.08022124     0.11900
H542        H  0.37372955  0.33631328  0.02521008     0.12100
H543        H  0.41443250  0.37827825  0.04342122     0.08400
C544        C  0.42730298  0.39960515  0.10443252    -0.10700
C545        C  0.44710969  0.41821714  0.12283185    -0.10000
C546        C  0.44652003  0.44470721  0.12455153    -0.00900
C547        C  0.42635347  0.45281108  0.10686325    -0.11100
C548        C  0.40630218  0.43401591  0.08874148    -0.09500
H549        H  0.42755630  0.37869407  0.10455781     0.08400
H550        H  0.46251270  0.41161495  0.13637059     0.12100
H551        H  0.42567278  0.47324803  0.10782301     0.11900
H552        H  0.39048955  0.44036798  0.07595873     0.08400
N553        N  0.30725048  0.30166605  0.01481324    -0.03300
C554        C  0.28218563  0.27157583  0.02343183    -0.00700
C555        C  0.26981330  0.25809553  0.56035005    -0.23600
C556        C  0.28753996  0.28092908  0.57465853    -0.23800
C557        C  0.31062151  0.30737208  0.54614618    -0.00800
H558        H  0.24954632  0.23455996  0.57512138     0.13000
H559        H  0.28425501  0.27831944  0.60292611     0.13000
N560        N  0.72554375  0.69920260  0.88021988    -0.03300
C561        C  0.75506210  0.72487886  0.87197907    -0.00700
C562        C  0.76964861  0.73258220  0.83731045    -0.23600
C563        C  0.74868578  0.71078582  0.82391577    -0.23800
C564        C  0.72185981  0.69035305  0.85075870    -0.00800
H565        H  0.79314583  0.75188044  0.82332766     0.13000
H566        H  0.75272294  0.70969461  0.79753077     0.13000
N567        N  0.51721478  0.50996443  0.64228386    -0.36400
N568        N  0.46880682  0.46405835  0.70781845    -0.57000
N569        N  0.50810412  0.49962303  0.75007269    -0.36400
N570        N  0.55742013  0.54376070  0.68522512    -0.57000
C571        C  0.49725513  0.48807035  0.62888975     0.27100
C572        C  0.54408121  0.53028179  0.61690546     0.27100
C573        C  0.48527694  0.47295936  0.77704105     0.27100
C574        C  0.53235111  0.51439187  0.76532867     0.27100
C575        C  0.45274106  0.45439096  0.68268369     0.35800
C576        C  0.44778030  0.44936999  0.73945102     0.35800
C577        C  0.57530754  0.56421942  0.65167602     0.35800
C578        C  0.57054843  0.55830731  0.70874001     0.35800
C579        C  0.51142023  0.49489840  0.59429024    -0.21700
C580        C  0.54081040  0.52149030  0.58668660    -0.21700
C581        C  0.49515603  0.47083414  0.80977772    -0.21700
C582        C  0.52469147  0.49705763  0.80244978    -0.21700
C583        C  0.42143399  0.43309593  0.69857673    -0.22800
C584        C  0.41823747  0.43020393  0.73435622    -0.22800
C585        C  0.60021189  0.59169097  0.65404698    -0.22800
C586        C  0.59717621  0.58797264  0.69009215    -0.22800
C587        C  0.46601002  0.46324241  0.64600325    -0.18100
C588        C  0.57078478  0.55761593  0.61928400    -0.18100
C589        C  0.56034667  0.54414745  0.74707655    -0.18100
C590        C  0.45513668  0.45145820  0.77332697    -0.18100
H591        H  0.50146174  0.48238506  0.57604437     0.14800
H592        H  0.55758373  0.53321994  0.56138603     0.14800
H593        H  0.48235257  0.45242449  0.83636293     0.14800
H594        H  0.53873186  0.50272104  0.82239895     0.14800
H595        H  0.40277138  0.42095365  0.68573817     0.13100
H596        H  0.39658720  0.41543414  0.75432957     0.13100
H597        H  0.61900839  0.61211500  0.63224909     0.13100
H598        H  0.61320365  0.60493797  0.70128870     0.13100
H599        H  0.51172482  0.51283742  0.66569385     0.26300
H600        H  0.50579410  0.50913689  0.72387641     0.26300
N601        N  0.71839614  0.04355892  0.80262781    -0.03300
C602        C  0.74373141  0.04067010  0.80550261    -0.00700
C603        C  0.75854298  0.04660467  0.77181486    -0.23600
C604        C  0.74194928  0.05305269  0.74722194    -0.23800
C605        C  0.71737345  0.05073014  0.76662233    -0.00800
H606        H  0.77898767  0.04564637  0.76595984     0.13000
H607        H  0.74649178  0.05751671  0.71847799     0.13000
N608        N  0.30958402  0.00965538  0.82730326    -0.03300
C609        C  0.28564116  0.01420739  0.83157644    -0.00700
C610        C  0.27085157  0.01241219  0.80262376    -0.23600
C611        C  0.28599400  0.00642002  0.77972390    -0.23800
C612        C  0.30975620  0.00498415  0.79525835    -0.00800
H613        H  0.25072351  0.01450246  0.79900287     0.13000
H614        H  0.28066639  0.00408131  0.75404247     0.13000
N615        N  0.51292231  0.02675132  0.59997261    -0.36400
N616        N  0.55696270  0.03212737  0.54550368    -0.57000
N617        N  0.51575791  0.03033919  0.49440590    -0.36400
N618        N  0.47031662  0.02169670  0.55052194    -0.57000
C619        C  0.53356271  0.02465668  0.62015020     0.27100
C620        C  0.48727322  0.01754197  0.62327884     0.27100
C621        C  0.53614176  0.02711227  0.97608880     0.27100
C622        C  0.49090500  0.02305235  0.97808326     0.27100
C623        C  0.57483692  0.03828840  0.57042495     0.35800
C624        C  0.57573755  0.03851942  0.51537290     0.35800
C625        C  0.45435861  0.02197060  0.57814906     0.35800
C626        C  0.45635777  0.02514270  0.52205824     0.35800
C627        C  0.52106553  0.01442401  0.65668479    -0.21700
C628        C  0.49186895  0.00989573  0.65866756    -0.21700
C629        C  0.52452094  0.01830789  0.94733951    -0.21700
C630        C  0.49606248  0.01581016  0.94855480    -0.21700
C631        C  0.60502911  0.04831239  0.55621115    -0.22800
C632        C  0.60557775  0.04831844  0.52144627    -0.22800
C633        C  0.42985953  0.02515500  0.56738139    -0.22800
C634        C  0.43115970  0.02725069  0.53183166    -0.22800
C635        C  0.56401030  0.03334105  0.60651135    -0.18100
C636        C  0.46064525  0.01784795  0.61350818    -0.18100
C637        C  0.46441699  0.02386901  0.48834966    -0.18100
C638        C  0.56598529  0.03377832  0.48326586    -0.18100
H639        H  0.53194161  0.01085206  0.67959502     0.14800
H640        H  0.47604672  0.00230173  0.68340475     0.14800
H641        H  0.53548856  0.01431950  0.92733494     0.14800
H642        H  0.48091767  0.00941555  0.92975066     0.14800
H643        H  0.62455269  0.05459117  0.56964207     0.13100
H644        H  0.62565798  0.05462546  0.50288798     0.13100
H645        H  0.41269110  0.02565222  0.58353020     0.13100
H646        H  0.41504986  0.02952801  0.51528761     0.13100
H647        H  0.51753746  0.03736647  0.57191080     0.26300
H648        H  0.51976711  0.04013432  0.51438878     0.26300
N649        N  0.96809499  0.28620525  0.00867532    -0.03300
C650        C  0.97017616  0.25995168  0.51870762    -0.00700
C651        C  0.96192819  0.24482158  0.55612061    -0.23600
C652        C  0.95447323  0.26250837  0.56946482    -0.23800
C653        C  0.95866805  0.28808895  0.53975911    -0.00800
H654        H  0.96212102  0.22364674  0.57202629     0.13000
H655        H  0.94844290  0.25819226  0.59791752     0.13000
N656        N  0.02271781  0.71405698  0.86806470    -0.03300
C657        C  0.03162464  0.74553233  0.85533713    -0.00700
C658        C  0.03405872  0.75664711  0.81806590    -0.23600
C659        C  0.02628613  0.73134473  0.80737852    -0.23800
C660        C  0.01954644  0.70558076  0.83837850    -0.00800
H661        H  0.03984696  0.78038009  0.80066218     0.13000
H662        H  0.02589619  0.73174714  0.77984884     0.13000
N663        N  0.00487014  0.49768540  0.74042063    -0.36400
N664        N  0.00696530  0.54678088  0.67617729    -0.57000
N665        N  0.00025336  0.50785157  0.63338855    -0.36400
N666        N  0.99464746  0.45719271  0.69848416    -0.57000
C667        C  0.00235438  0.51652552  0.75607057     0.27100
C668        C  0.99677151  0.46971564  0.76752374     0.27100
C669        C  0.99819681  0.53141635  0.60861458     0.27100
C670        C  0.99132697  0.48396186  0.62044948     0.27100
C671        C  0.01223705  0.56215682  0.69977154     0.35800
C672        C  0.01074936  0.56797405  0.64315322     0.35800
C673        C  0.99629937  0.43844379  0.73003305     0.35800
C674        C  0.99393247  0.44386585  0.67367946     0.35800
C675        C  0.99335840  0.50063536  0.79355952    -0.21700
C676        C  0.98971764  0.47114667  0.80074589    -0.21700
C677        C  0.98845933  0.52261775  0.57923054    -0.21700
C678        C  0.98411058  0.49275385  0.58668863    -0.21700
C679        C  0.01902345  0.59317415  0.68169802    -0.22800
C680        C  0.01815728  0.59687173  0.64586872    -0.22800
C681        C  0.99635947  0.41292696  0.72533606    -0.22800
C682        C  0.99470872  0.41626076  0.68974445    -0.22800
C683        C  0.00850633  0.54792714  0.73786371    -0.18100
C684        C  0.99602436  0.44298346  0.76354571    -0.18100
C685        C  0.99064989  0.45497248  0.63735811    -0.18100
C686        C  0.00579928  0.56113849  0.61098242    -0.18100
H687        H  0.98955409  0.50922634  0.81379876     0.14800
H688        H  0.98238140  0.45272235  0.82750672     0.14800
H689        H  0.98487724  0.53628385  0.55481222     0.14800
H690        H  0.97663939  0.47918207  0.56903114     0.14800
H691        H  0.02357446  0.61112159  0.69321965     0.13100
H692        H  0.02193613  0.61820428  0.62442816     0.13100
H693        H  0.99712771  0.39366964  0.74552543     0.13100
H694        H  0.99386340  0.39998591  0.67726117     0.13100
H695        H  0.01430736  0.50462594  0.71332093     0.26300
H696        H  0.01003363  0.50927420  0.65603191     0.26300
O697        O  0.05756519  0.00405543  0.91441180    -0.88200
C698        C  0.97612878  0.94059381  0.99091818     0.87800
Mg699      Mg  0.09180105  0.04933416  0.91761788     1.58100
O700        O  0.96728840  0.98207650  0.90664776    -0.87900
O701        O  0.02833745  0.98518561  0.87754263    -0.75200
C702        C  0.01096831  0.11399529  0.94462319     0.92900
O703        O  0.04658465  0.99169077  0.99973177    -0.75100
O704        O  0.03553736  0.11383495  0.95095399    -0.82600
Mg705      Mg  0.04137801  0.96253799  0.96358320     1.58000
C706        C  0.91185813  0.02169083  0.90557773     0.92800
O707        O  0.03675939  0.92845657  0.93437405    -0.80800
H708        H  0.97191966  0.99360268  0.85279391    -0.06200
C709        C  0.97249710  0.01919162  0.98524625     0.87800
O710        O  0.07305200  0.07565344  0.87686274    -0.75300
O711        O  0.99419956  0.95125043  0.96184933    -0.88100
O712        O  0.90982662  0.99463561  0.91827976    -0.80900
C713        C  0.90207624  0.90149428  0.94690419     0.92900
C714        C  0.01593897  0.90823601  0.92290730     0.92800
Mg715      Mg  0.98638233  0.05941037  0.90508326     1.58000
O716        O  0.98988291  0.09303706  0.93424789    -0.80800
O717        O  0.98179759  0.03037510  0.86934800    -0.75100
O718        O  0.92876489  0.90501103  0.94075376    -0.80900
O719        O  0.09131897  0.97470473  0.96394145    -0.82600
O720        O  0.09941517  0.11742552  0.93034522    -0.80900
C721        C  0.97318166  0.00136587  0.87549348     0.87200
O722        O  0.03343604  0.07077961  0.90777521    -0.88100
O723        O  0.96949675  0.01791174  0.95473778    -0.88200
O724        O  0.99867835  0.03742176  0.99132644    -0.75200
Mg725      Mg  0.97915947  0.94644870  0.91214252     1.58000
O726        O  0.89909577  0.92419308  0.94875343    -0.82600
H727        H  0.07455408  0.01877591  0.86144540    -0.06300
O728        O  0.05989038  0.03985118  0.96323949    -0.87900
H729        H  0.05605407  0.02812446  0.51698070    -0.06200
H730        H  0.04869603  0.09579005  0.85422265    -0.06300
C731        C  0.05438038  0.02042357  0.99417610     0.87200
C732        C  0.05454159  0.00318956  0.88375364     0.87800
C733        C  0.05158083  0.08155998  0.87875280     0.87800
H734        H  0.95263906  0.00377834  0.50775075    -0.06300
O735        O  0.95451263  0.94633466  0.99279477    -0.75400
Mg736      Mg  0.04816401  0.07593370  0.95731614     1.58000
H737        H  0.97913987  0.92653787  0.01548694    -0.06300
C738        C  0.11662386  0.00073641  0.95979612     0.92800
O739        O  0.12745683  0.09672274  0.92185018    -0.82600
C740        C  0.12560328  0.11960883  0.92514424     0.92900
O741        O  0.99161149  0.90885544  0.91659848    -0.82600
Mg742      Mg  0.93524934  0.97233041  0.95222165     1.58200
O743        O  0.11772659  0.02729453  0.95159423    -0.80900
O744        O  0.93706869  0.04782208  0.90135821    -0.82600
C745        C  0.99847164  0.83256098  0.90750223    -0.10700
C746        C  0.02645190  0.83324179  0.91041534     0.06500
C747        C  0.05098821  0.85875482  0.91745456    -0.09400
C748        C  0.04762311  0.88310427  0.92144339    -0.11100
C749        C  0.01977767  0.88273507  0.91796266    -0.00900
C750        C  0.99521478  0.85708366  0.91104310    -0.10000
C751        C  0.03079125  0.80899611  0.90271178     0.06500
H752        H  0.07282938  0.85989687  0.91973386     0.08400
H753        H  0.06695238  0.90236011  0.92698882     0.11900
H754        H  0.97339186  0.85589307  0.90841124     0.12100
H755        H  0.97938006  0.81349150  0.90142584     0.08400
C756        C  0.00748705  0.77616161  0.91736212    -0.10700
C757        C  0.00923712  0.75433850  0.90473132    -0.10000
C758        C  0.03411372  0.76517793  0.87696998    -0.00900
C759        C  0.05842988  0.79749450  0.86432412    -0.11100
C760        C  0.05691685  0.81914428  0.87724533    -0.09500
H761        H  0.98722211  0.76770800  0.93726458     0.08400
H762        H  0.98998953  0.72964140  0.91448054     0.12100
H763        H  0.07770282  0.80641207  0.84266734     0.11900
H764        H  0.07510791  0.84427665  0.86532819     0.08400
C765        C  0.97911932  0.57770805  0.79655527    -0.10700
C766        C  0.00695633  0.60157989  0.80149677     0.06500
C767        C  0.03536714  0.60624590  0.78713745    -0.09400
C768        C  0.03594400  0.58847237  0.76690052    -0.11100
C769        C  0.00817169  0.56589518  0.76063403    -0.00900
C770        C  0.97975946  0.56021394  0.77610129    -0.10000
C771        C  0.00658265  0.62401509  0.81751953     0.06500
H772        H  0.05723918  0.62465716  0.79004619     0.08400
H773        H  0.05803895  0.59288022  0.75532339     0.11900
H774        H  0.95811283  0.54248232  0.77189090     0.12100
H775        H  0.95683706  0.57309656  0.80777109     0.08400
C776        C  0.98663059  0.63553448  0.80817305    -0.10700
C777        C  0.98941127  0.66049461  0.81768007    -0.10000
C778        C  0.01199153  0.67440494  0.83698240    -0.00900
C779        C  0.03063361  0.66168647  0.84858213    -0.11100
C780        C  0.02798873  0.63666372  0.83885720    -0.09500
H781        H  0.97021317  0.62679807  0.79133973     0.08400
H782        H  0.97501576  0.67019912  0.80819009     0.12100
H783        H  0.04851437  0.67242689  0.86306168     0.11900
H784        H  0.04346492  0.62807060  0.84680224     0.08400
C785        C  0.03907051  0.68514254  0.96008881    -0.10700
C786        C  0.01345508  0.65340727  0.97553816     0.06500
C787        C  0.99013529  0.64262364  0.95557472    -0.09400
C788        C  0.99282686  0.66273670  0.92068610    -0.11100
C789        C  0.01880985  0.69409900  0.90500181    -0.00900
C790        C  0.04165584  0.70527188  0.92524852    -0.10000
C791        C  0.01161699  0.63090233  0.51146885     0.06500
H792        H  0.97025144  0.61827495  0.96645149     0.08400
H793        H  0.97478419  0.65371199  0.90569456     0.11900
H794        H  0.06194685  0.72932476  0.91362813     0.12100
H795        H  0.05725046  0.69434761  0.97486236     0.08400
C796        C  0.03840321  0.63074023  0.52033789    -0.10700
C797        C  0.03657361  0.60858156  0.55306681    -0.10000
C798        C  0.00800470  0.58627361  0.57768061    -0.00900
C799        C  0.98133054  0.58674214  0.56946543    -0.11100
C800        C  0.98309271  0.60880409  0.53663600    -0.09500
H801        H  0.06063504  0.64707580  0.50143081     0.08400
H802        H  0.05732933  0.60836438  0.55890337     0.12100
H803        H  0.95907252  0.56959103  0.58816676     0.11900
H804        H  0.96210851  0.60849727  0.53086614     0.08400
C805        C  0.01380604  0.22754497  0.48783892    -0.10700
C806        C  0.99577260  0.21286760  0.96520802     0.06500
C807        C  0.97176609  0.21846928  0.95569219    -0.09400
C808        C  0.96488408  0.23644625  0.97054793    -0.11100
C809        C  0.98192935  0.24899907  0.99501162    -0.00900
C810        C  0.00697410  0.24542265  0.50241453    -0.10000
C811        C  0.99997200  0.18916604  0.95549208     0.06500
H812        H  0.95752894  0.20790564  0.93800140     0.08400
H813        H  0.94508822  0.23872361  0.96488238     0.11900
H814        H  0.02020425  0.25478064  0.52148603     0.12100
H815        H  0.03209404  0.22352134  0.49642351     0.08400
C816        C  0.02959933  0.19316835  0.95035673    -0.10700
C817        C  0.03305399  0.16867758  0.94722735    -0.10000
C818        C  0.00708236  0.13979149  0.94825606    -0.00900
C819        C  0.97764429  0.13634622  0.95140913    -0.11100
C820        C  0.97408410  0.16063139  0.95527164    -0.09500
H821        H  0.05020215  0.21509840  0.94936694     0.08400
H822        H  0.05615440  0.17243551  0.94385098     0.12100
H823        H  0.95719896  0.11448290  0.95190624     0.11900
H824        H  0.95085732  0.15641144  0.95959934     0.08400
C825        C  0.00339424  0.41397279  0.57972063    -0.10700
C826        C  0.97261815  0.39172055  0.57924824     0.06500
C827        C  0.94806771  0.39194075  0.59637470    -0.09400
C828        C  0.95402277  0.41274583  0.61487554    -0.11100
C829        C  0.98462429  0.43408822  0.61613997    -0.00900
C830        C  0.00932022  0.43504195  0.59790615    -0.10000
C831        C  0.96607751  0.36647165  0.56414838     0.06500
H832        H  0.92415408  0.37566676  0.59600061     0.08400
H833        H  0.93475250  0.41198399  0.62860715     0.11900
H834        H  0.03309194  0.45148931  0.59863940     0.12100
H835        H  0.02288240  0.41423958  0.56740702     0.08400
C836        C  0.98671596  0.37251623  0.53424178    -0.10700
C837        C  0.98308675  0.34733981  0.52420156    -0.10000
C838        C  0.95855932  0.31572218  0.54362697    -0.00900
C839        C  0.93674056  0.31006811  0.57170098    -0.11100
C840        C  0.94046027  0.33505859  0.58191762    -0.09500
H841        H  0.00639578  0.39648447  0.51950234     0.08400
H842        H  0.00064570  0.35238031  0.50290900     0.12100
H843        H  0.91768200  0.28588307  0.58717838     0.11900
H844        H  0.92426543  0.32922759  0.60532011     0.08400
C845        C  0.95236562  0.33206569  0.92637416    -0.10700
C846        C  0.98091140  0.34900764  0.90149414     0.06500
C847        C  0.00509292  0.34433813  0.91239318    -0.09400
C848        C  0.00079147  0.32327661  0.94739016    -0.11100
C849        C  0.97242233  0.30689740  0.97218788    -0.00900
C850        C  0.94826386  0.31137836  0.96140932    -0.10000
C851        C  0.98559312  0.37213946  0.86480193     0.06500
H852        H  0.02727031  0.35685725  0.89379361     0.08400
H853        H  0.01971538  0.32018273  0.95542362     0.11900
H854        H  0.92623591  0.29884999  0.98030838     0.12100
H855        H  0.93343022  0.33541735  0.91906901     0.08400
C856        C  0.96167647  0.36500708  0.84503259    -0.10700
C857        C  0.96541556  0.38758594  0.81155339    -0.10000
C858        C  0.99316692  0.41766113  0.79714098    -0.00900
C859        C  0.01731690  0.42462982  0.81638714    -0.11100
C860        C  0.01358878  0.40210297  0.84987569    -0.09500
H861        H  0.93996748  0.34202981  0.85560008     0.08400
H862        H  0.94642794  0.38191073  0.79723311     0.12100
H863        H  0.03874940  0.44788338  0.80586049     0.11900
H864        H  0.03225201  0.40853894  0.86463596     0.08400
C865        C  0.23829310  0.98812181  0.92311730    -0.10700
C866        C  0.23170880  0.01260263  0.91687756     0.06500
C867        C  0.24885807  0.04058602  0.88549337    -0.09400
C868        C  0.26922903  0.04244947  0.85916303    -0.11100
C869        C  0.27336811  0.01670079  0.86388181    -0.00900
C870        C  0.25905937  0.99021789  0.89681262    -0.10000
C871        C  0.20357805  0.00702270  0.93859833     0.06500
H872        H  0.24435407  0.05983384  0.87944738     0.08400
H873        H  0.27987994  0.06296209  0.83374917     0.11900
H874        H  0.26174295  0.96995455  0.90075806     0.12100
H875        H  0.22585402  0.96644371  0.94719170     0.08400
C876        C  0.17534304  0.97733436  0.94840341    -0.10700
C877        C  0.14708030  0.97434059  0.95914580    -0.10000
C878        C  0.14628618  0.00099998  0.96017777    -0.00900
C879        C  0.17477368  0.02967352  0.95432565    -0.11100
C880        C  0.20308107  0.03260852  0.94377681    -0.09500
H881        H  0.17465495  0.95710042  0.94463724     0.08400
H882        H  0.12569340  0.95184308  0.96352955     0.12100
H883        H  0.17514868  0.05062103  0.95527660     0.11900
H884        H  0.22443916  0.05560862  0.93729018     0.08400
C885        C  0.38661866  0.02343547  0.74898374    -0.10700
C886        C  0.37649335  0.00300391  0.72912258     0.09600
C887        C  0.34449810  0.98081515  0.73480197    -0.09400
C888        C  0.32305390  0.98027836  0.75818462    -0.11100
C889        C  0.33304853  0.00182041  0.77649698    -0.00900
C890        C  0.36506492  0.02296686  0.77232618    -0.10000
C891        C  0.39870921  0.00653252  0.70033626     0.06500
H892        H  0.33584959  0.96500487  0.71968914     0.08400
H893        H  0.29845351  0.96384119  0.76084844     0.11900
H894        H  0.37337957  0.04025530  0.78555494     0.12100
H895        H  0.41115893  0.04051028  0.74556160     0.08400
C896        C  0.42280572  0.03725376  0.67717677    -0.10700
C897        C  0.44248549  0.04086898  0.64850943    -0.10000
C898        C  0.43833622  0.01389589  0.64236402    -0.00900
C899        C  0.41453000  0.98317995  0.66539004    -0.11100
C900        C  0.39488557  0.97950251  0.69420684    -0.09500
H901        H  0.42605263  0.05857117  0.68071076     0.08400
H902        H  0.46102845  0.06469740  0.63110939     0.12100
H903        H  0.41147545  0.96212281  0.66128002     0.11900
H904        H  0.37679812  0.95552166  0.71178737     0.08400
C905        C  0.42417398  0.04713350  0.91532112    -0.10700
C906        C  0.39865846  0.01700159  0.91849434     0.06500
C907        C  0.39567667  0.98917317  0.94406134    -0.09400
C908        C  0.41741459  0.99144267  0.96614450    -0.11100
C909        C  0.44256895  0.02152195  0.96302597    -0.00900
C910        C  0.44590165  0.04935105  0.93743580    -0.10000
C911        C  0.37510783  0.01462438  0.89554613     0.06500
H912        H  0.37612354  0.96564107  0.94763797     0.08400
H913        H  0.41439723  0.96977341  0.98609900     0.11900
H914        H  0.46512541  0.07275802  0.93492361     0.12100
H915        H  0.42745481  0.06901897  0.89560316     0.08400
C916        C  0.36581113  0.03710945  0.88731322    -0.10700
C917        C  0.34407095  0.03519634  0.86533786    -0.10000
C918        C  0.33093811  0.01065751  0.85129523    -0.00900
C919        C  0.33971067  0.98782052  0.85998098    -0.11100
C920        C  0.36167995  0.98986882  0.88168793    -0.09500
H921        H  0.37524479  0.05616181  0.89798369     0.08400
H922        H  0.33790218  0.05325805  0.85873443     0.12100
H923        H  0.32971021  0.96853706  0.84968514     0.11900
H924        H  0.36850488  0.97234088  0.88712977     0.08400
C925        C  0.79857835  0.05139996  0.86850388    -0.10700
C926        C  0.80114903  0.02452225  0.87304942     0.06500
C927        C  0.77814990  0.99953488  0.86367832    -0.09400
C928        C  0.75538751  0.00282794  0.84679118    -0.11100
C929        C  0.75524280  0.03127306  0.83834074    -0.00900
C930        C  0.77596229  0.05485478  0.85099949    -0.10000
C931        C  0.82928283  0.02396053  0.88338366     0.06500
H932        H  0.77924668  0.97858642  0.86626582     0.08400
H933        H  0.74013648  0.98468095  0.83642448     0.11900
H934        H  0.77671022  0.07728150  0.84412688     0.12100
H935        H  0.81526732  0.07074413  0.87631697     0.08400
C936        C  0.85885839  0.05243083  0.87184413    -0.10700
C937        C  0.88561876  0.05171932  0.87878919    -0.10000
C938        C  0.88365877  0.02248402  0.89702316    -0.00900
C939        C  0.85416767  0.99404006  0.90871862    -0.11100
C940        C  0.82736826  0.99478538  0.90223253    -0.09500
H941        H  0.86157138  0.07531508  0.85650807     0.08400
H942        H  0.90792540  0.07410137  0.86949683     0.12100
H943        H  0.85168915  0.97112054  0.92335797     0.11900
H944        H  0.80511026  0.97238417  0.91211390     0.08400
C945        C  0.61940505  0.06783737  0.66533307    -0.10700
C946        C  0.62381440  0.04257529  0.68350359     0.06500
C947        C  0.60855787  0.01426235  0.67603401    -0.09400
C948        C  0.58961253  0.01148512  0.65038479    -0.11100
C949        C  0.58545667  0.03685142  0.63216028    -0.00900
C950        C  0.60015498  0.06488330  0.64005848    -0.10000
C951        C  0.64624571  0.04671415  0.70788619     0.06500
H952        H  0.61194211  0.99464734  0.68937418     0.08400
H953        H  0.57806963  0.98956260  0.64482918     0.11900
H954        H  0.59673099  0.08444417  0.62656557     0.12100
H955        H  0.63091748  0.08985165  0.67070286     0.08400
C956        C  0.67667902  0.07352893  0.69525434    -0.10700
C957        C  0.69931738  0.07576469  0.71577928    -0.10000
C958        C  0.69186834  0.05153973  0.74960890    -0.00900
C959        C  0.66101645  0.02560784  0.76338246    -0.11100
C960        C  0.63836589  0.02307091  0.74248426    -0.09500
H961        H  0.68336593  0.09190513  0.66857161     0.08400
H962        H  0.72306319  0.09577866  0.70452922     0.12100
H963        H  0.65492052  0.00640072  0.78915394     0.11900
H964        H  0.61496432  0.00223368  0.75278051     0.08400
C965        C  0.63310072  0.06639764  0.90640729    -0.10700
C966        C  0.63238181  0.03844836  0.90732229     0.06500
C967        C  0.60868811  0.00871670  0.93306792    -0.09400
C968        C  0.58679137  0.00708501  0.95733598    -0.11100
C969        C  0.58782553  0.03504651  0.95619946    -0.00900
C970        C  0.61098872  0.06466019  0.93039179    -0.10000
C971        C  0.65584560  0.04033774  0.88118705     0.06500
H972        H  0.60679123  0.98658042  0.93431560     0.08400
H973        H  0.56907312  0.98399848  0.97715717     0.11900
H974        H  0.61231721  0.08652742  0.92935779     0.12100
H975        H  0.65114382  0.08983812  0.88765680     0.08400
C976        C  0.66819982  0.06412092  0.84598336    -0.10700
C977        C  0.68942747  0.06564436  0.82111320    -0.10000
C978        C  0.69853019  0.04303316  0.83010628    -0.00900
C979        C  0.68691714  0.01962056  0.86543726    -0.11100
C980        C  0.66591494  0.01835623  0.89072833    -0.09500
H981        H  0.66097584  0.08127825  0.83709031     0.08400
H982        H  0.69849027  0.08442947  0.79439143     0.12100
H983        H  0.69343321  0.00183776  0.87321407     0.11900
H984        H  0.65755966  0.00007801  0.91773801     0.08400
C985        C  0.81966490  0.77447107  0.91200157    -0.10700
C986        C  0.80671812  0.78789270  0.92751870     0.06500
C987        C  0.77498634  0.77717956  0.92847359    -0.09400
C988        C  0.75713851  0.75465923  0.91280271    -0.11100
C989        C  0.77082838  0.74275630  0.89567117    -0.00900
C990        C  0.80198959  0.75228927  0.89629939    -0.10000
C991        C  0.82737573  0.81478695  0.93950522     0.06500
H992        H  0.76423320  0.78687579  0.94039503     0.08400
H993        H  0.73329078  0.74809251  0.91214644     0.11900
H994        H  0.81313770  0.74357279  0.88313751     0.12100
H995        H  0.84405912  0.78242044  0.91011204     0.08400
C996        C  0.85201284  0.81494331  0.95561359    -0.10700
C997        C  0.87528343  0.84259134  0.96008538    -0.10000
C998        C  0.87425056  0.87066220  0.94929051    -0.00900
C999        C  0.84833000  0.86983516  0.93597337    -0.11100
C1000       C  0.82518705  0.84221233  0.93094961    -0.09500
H1001       H  0.85406668  0.79404309  0.96333790     0.08400
H1002       H  0.89481212  0.84240440  0.97070037     0.12100
H1003       H  0.84703369  0.89120629  0.92709715     0.11900
H1004       H  0.80671525  0.84308265  0.91821726     0.08400
C1005       C  0.61957903  0.56838096  0.80632871    -0.10700
C1006       C  0.62147470  0.59620451  0.80781902     0.06500
C1007       C  0.60171808  0.60555407  0.79074762    -0.09400
C1008       C  0.58132738  0.58811378  0.77187796    -0.11100
C1009       C  0.58046192  0.56118606  0.76935559    -0.00900
C1010       C  0.59948318  0.55123310  0.78700692    -0.10000
C1011       C  0.64567471  0.61686332  0.82431039     0.06500
H1012       H  0.60283215  0.62708057  0.79068939     0.08400
H1013       H  0.56681785  0.59613263  0.75831070     0.11900
H1014       H  0.59897869  0.53038472  0.78545522     0.12100
H1015       H  0.63397514  0.56009164  0.81965030     0.08400
C1016       C  0.64028872  0.63447482  0.84159401    -0.10700
C1017       C  0.66452636  0.65711224  0.85248641    -0.10000
C1018       C  0.69449800  0.66225133  0.84683565    -0.00900
C1019       C  0.69946471  0.64354216  0.83128176    -0.11100
C1020       C  0.67545333  0.62121384  0.82011715    -0.09500
H1021       H  0.61759270  0.63156277  0.84561157     0.08400
H1022       H  0.66017744  0.67190476  0.86307055     0.12100
H1023       H  0.72245435  0.64727020  0.82620915     0.11900
H1024       H  0.68079471  0.60865571  0.80638847     0.08400
C1025       C  0.62279121  0.63133778  0.53466790    -0.10700
C1026       C  0.64158457  0.62239622  0.52063143     0.06500
C1027       C  0.63746867  0.59225675  0.54060577    -0.09400
C1028       C  0.61514881  0.57172184  0.57304536    -0.11100
C1029       C  0.59579068  0.58034013  0.58591309    -0.00900
C1030       C  0.59992369  0.61038324  0.56662869    -0.10000
C1031       C  0.66454331  0.64377462  0.98486560     0.06500
H1032       H  0.65097439  0.58400301  0.03073216     0.08400
H1033       H  0.61233530  0.54862955  0.58765195     0.11900
H1034       H  0.58537885  0.61757761  0.57637228     0.12100
H1035       H  0.62559403  0.65453192  0.52109118     0.08400
C1036       C  0.65941369  0.66498289  0.95741541    -0.10700
C1037       C  0.67981920  0.68368879  0.92341073    -0.10000
C1038       C  0.70526937  0.68100507  0.91560176    -0.00900
C1039       C  0.71105658  0.66062185  0.94278223    -0.11100
C1040       C  0.69112592  0.64242121  0.97712879    -0.09500
H1041       H  0.63923297  0.66671109  0.96163589     0.08400
H1042       H  0.67557791  0.70003369  0.90295951     0.12100
H1043       H  0.73102851  0.65881177  0.93725477     0.11900
H1044       H  0.69673503  0.62738196  0.99752455     0.08400
C1045       C  0.17835396  0.19743095  0.93964192    -0.10700
C1046       C  0.20553724  0.19650526  0.94343859     0.06500
C1047       C  0.20753654  0.17240183  0.93619407    -0.09400
C1048       C  0.18232224  0.14871123  0.92764470    -0.11100
C1049       C  0.15433457  0.14837614  0.92628103    -0.00900
C1050       C  0.15305395  0.17363648  0.93127575    -0.10000
C1051       C  0.22987563  0.21809798  0.95905534     0.06500
H1052       H  0.22825246  0.17119007  0.93841825     0.08400
H1053       H  0.18424161  0.12968731  0.92400260     0.11900
H1054       H  0.13184072  0.17425113  0.43079882     0.12100
H1055       H  0.17582810  0.21547915  0.44563337     0.08400
C1056       C  0.23883623  0.25047366  0.44967664    -0.10700
C1057       C  0.25807854  0.26887391  0.46875952    -0.10000
C1058       C  0.26819664  0.25526478  0.99778424    -0.00900
C1059       C  0.26087928  0.22369022  0.00580435    -0.11100
C1060       C  0.24221686  0.20542231  0.98648352    -0.09500
H1061       H  0.23010838  0.26118628  0.42841816     0.08400
H1062       H  0.26333599  0.29315613  0.46229436     0.12100
H1063       H  0.26853459  0.21266868  0.02818878     0.11900
H1064       H  0.23581880  0.18064126  0.99469468     0.08400
C1065       C  0.39393384  0.37497810  0.84962809    -0.10700
C1066       C  0.38705859  0.38692747  0.87389770     0.06500
C1067       C  0.40165047  0.42041690  0.86367444    -0.09400
C1068       C  0.42284377  0.44124572  0.83049804    -0.11100
C1069       C  0.43049691  0.42915598  0.80713520    -0.00900
C1070       C  0.41576430  0.39583882  0.81697142    -0.10000
C1071       C  0.36575994  0.36460943  0.91016133     0.06500
H1072       H  0.39749854  0.43070647  0.88168338     0.08400
H1073       H  0.43401394  0.46690791  0.82346260     0.11900
H1074       H  0.42139642  0.38597096  0.79945456     0.12100
H1075       H  0.38264964  0.34943912  0.85587393     0.08400
C1076       C  0.34747800  0.37243470  0.92729595    -0.10700
C1077       C  0.32849221  0.35189392  0.96186769    -0.10000
C1078       C  0.32684090  0.32287333  0.97951134    -0.00900
C1079       C  0.34446387  0.31460995  0.96254400    -0.11100
C1080       C  0.36404518  0.33541699  0.92845204    -0.09500
H1081       H  0.34758333  0.39427219  0.91398063     0.08400
H1082       H  0.31472791  0.35833144  0.97474750     0.12100
H1083       H  0.34347450  0.29229959  0.97615558     0.11900
H1084       H  0.37825929  0.32878471  0.91686333     0.08400
C1085       C  0.39043071  0.37114175  0.55088935    -0.10700
C1086       C  0.38251665  0.38486406  0.57195344     0.06500
C1087       C  0.35111962  0.37508201  0.58091449    -0.09400
C1088       C  0.32802858  0.35094142  0.57088548    -0.11100
C1089       C  0.33577881  0.33649691  0.55093915    -0.00900
C1090       C  0.36727083  0.34733529  0.54022033    -0.10000
C1091       C  0.40615908  0.40703339  0.58749002     0.06500
H1092       H  0.34420375  0.38487636  0.59742157     0.08400
H1093       H  0.30388117  0.34277959  0.57971431     0.11900
H1094       H  0.37379888  0.33620713  0.52534066     0.12100
H1095       H  0.41444446  0.37826638  0.54348473     0.08400
C1096       C  0.42684245  0.39941651  0.60476014    -0.10700
C1097       C  0.44653860  0.41796901  0.62327608    -0.10000
C1098       C  0.44620722  0.44469741  0.62456593    -0.00900
C1099       C  0.42641974  0.45309990  0.60633143    -0.11100
C1100       C  0.40646154  0.43435299  0.58810031    -0.09500
H1101       H  0.42688311  0.37832695  0.60520490     0.08400
H1102       H  0.46166824  0.41115534  0.63721209     0.12100
H1103       H  0.42596740  0.47374247  0.60692973     0.11900
H1104       H  0.39091665  0.44091485  0.57490124     0.08400
loop_ 
_geom_bond_atom_site_label_1 
_geom_bond_atom_site_label_2 
_geom_bond_distance 
_geom_bond_site_symmetry_2 
_ccdc_geom_bond_type 
N1            C2   1.357       .  A
N1          C557   1.357       .  A
N1          C526   1.433       .  S
C2          C506   1.484       .  S
C2          C555   1.383       .  A
C3            C4   1.378       .  A
C3          C554   1.383       .  A
C3            H6   1.082       .  S
C4            C5   1.383       .  A
C4            H7   1.082       .  S
C5          N553   1.357       .  A
C5          C537   1.486       .  S
N8           C12   1.361       .  A
N8            C9   1.359       .  A
N8          C486   1.438       .  S
C9          C437   1.483       .  S
C9           C10   1.383       .  A
C10          C11   1.371       .  A
C10          H13   1.082       .  S
C11          C12   1.383       .  A
C11          H14   1.082       .  S
C12         C466   1.485       .  S
N15          C20   1.355       .  A
N15          C19   1.356       .  A
N15          H47   1.035       .  S
N16          C23   1.354       .  A
N16          C24   1.353       .  A
N17          C22   1.355       .  A
N17          C21   1.354       .  A
N17          H48   1.036       .  S
N18          C25   1.353       .  A
N18          C26   1.353       .  A
C19          C27   1.386       .  A
C19          C35   1.419       .  A
C20          C36   1.423       .  A
C20          C28   1.389       .  A
C21          C29   1.388       .  A
C21          C38   1.418       .  A
C22          C37   1.416       .  A
C22          C30   1.387       .  A
C23          C35   1.417       .  A
C23          C31   1.386       .  A
C24          C38   1.418       .  A
C24          C32   1.387       .  A
C25          C33   1.387       .  A
C25          C36   1.419       .  A
C26          C34   1.386       .  A
C26          C37   1.416       .  A
C27          C28   1.375       .  A
C27          H39   1.082       .  S
C28          H40   1.081       .  S
C29          C30   1.373       .  A
C29          H41   1.082       .  S
C30          H42   1.082       .  S
C31          C32   1.373       .  A
C31          H43   1.082       .  S
C32          H44   1.082       .  S
C33          C34   1.372       .  A
C33          H45   1.082       .  S
C34          H46   1.082       .  S
C35         C546   1.491       .  S
C36         C477   1.491       .  S
C37         C457   1.487       .  S
C38         C517   1.492       .  S
N49          C53   1.364       .  A
N49          C50   1.363       .  A
N49         C426   1.450       .  S
C50         C377   1.475       .  S
C50          C51   1.382       .  A
C51          C52   1.366       .  A
C51          H54   1.083       .  S
C52          C53   1.380       .  A
C52          H55   1.082       .  S
C53         C406   1.478       .  S
N56          C60   1.361       .  A
N56          C57   1.358       .  A
N56         C366   1.443       .  S
C57         C317   1.476       .  S
C57          C58   1.381       .  A
C58          C59   1.371       .  A
C58          H61   1.082       .  S
C59          C60   1.383       .  A
C59          H62   1.082       .  S
C60         C337   1.481       .  S
N63          C68   1.352       .  A
N63          C67   1.351       .  A
N63          H95   1.035       .  S
N64          C71   1.354       .  A
N64          C72   1.353       .  A
N65         C622   1.355       .  A
N65         C621   1.356       .  A
N65          H96   1.036   1_556  S
N66          C73   1.352       .  A
N66          C74   1.351       .  A
C67          C75   1.387       .  A
C67          C83   1.413       .  A
C68          C84   1.413       .  A
C68          C76   1.388       .  A
C69         N617   1.357       .  A
C69          C77   1.387       .  A
C69         C638   1.421       .  A
C70         N617   1.355       .  A
C70          C78   1.387       .  A
C70         C637   1.420       .  A
C71          C83   1.416       .  A
C71          C79   1.385       .  A
C72          C86   1.418   1_554  A
C72          C80   1.387       .  A
C73          C81   1.385       .  A
C73          C84   1.413       .  A
C74          C82   1.388       .  A
C74          C85   1.416   1_554  A
C75          C76   1.372       .  A
C75          H87   1.082       .  S
C76          H88   1.082       .  S
C77          C78   1.378       .  A
C77          H89   1.082       .  S
C78          H90   1.082       .  S
C79          C80   1.374       .  A
C79          H91   1.082       .  S
C80          H92   1.082       .  S
C81          C82   1.373       .  A
C81          H93   1.082       .  S
C82          H94   1.082       .  S
C83         C397   1.483       .  S
C84         C346   1.480       .  S
C85         C909   1.484       .  S
C85         C622   1.419       .  A
C86         C969   1.491       .  S
C86         C621   1.421       .  A
N97         C653   1.358       .  A
N97         C650   1.355       .  A
N97         C297   1.438       .  S
C98         N649   1.355       .  A
C98         C809   1.473   1_554  S
C98          C99   1.381       .  A
C99         C100   1.372       .  A
C99         H102   1.082       .  S
C100        C101   1.384       .  A
C100        H103   1.082       .  S
C101        N649   1.358       .  A
C101        C286   1.481       .  S
N104        C108   1.360       .  A
N104        C105   1.361       .  A
N104        C237   1.444       .  S
C105        C206   1.479       .  S
C105        C106   1.383       .  A
C106        C107   1.370       .  A
C106        H109   1.082       .  S
C107        C108   1.381       .  A
C107        H110   1.082       .  S
C108        C226   1.478       .  S
N111        C116   1.354   1_455  A
N111        C115   1.354       .  A
N111        H143   1.038       .  S
N112        C119   1.352       .  A
N112        C120   1.353       .  A
N113        C118   1.354   1_455  A
N113        C117   1.355   1_455  A
N113        H144   1.036       .  S
N114        C121   1.353       .  A
N114        C122   1.352       .  A
C115        C123   1.388   1_455  A
C115        C131   1.416       .  A
C116        C132   1.417       .  A
C116        C124   1.387       .  A
C117        C125   1.387       .  A
C117        C134   1.419   1_655  A
C118        C133   1.418       .  A
C118        C126   1.388       .  A
C119        C131   1.416       .  A
C119        C127   1.387       .  A
C120        C134   1.416       .  A
C120        C128   1.386       .  A
C121        C129   1.386       .  A
C121        C132   1.415       .  A
C122        C130   1.388       .  A
C122        C133   1.417       .  A
C123        C124   1.371       .  A
C123        H135   1.082       .  S
C124        H136   1.082       .  S
C125        C126   1.374       .  A
C125        H137   1.082       .  S
C126        H138   1.082       .  S
C127        C128   1.373       .  A
C127        H139   1.082       .  S
C128        H140   1.082       .  S
C129        C130   1.372       .  A
C129        H141   1.082       .  S
C130        H142   1.082       .  S
C131        C217   1.483       .  S
C132        C306   1.489       .  S
C133        C277   1.483       .  S
C134        C246   1.489       .  S
O145       Mg147   2.159       .  S
O145       Mg153   2.158   1_545  S
O145        C180   1.236       .  S
C146        H185   1.081       .  S
C146        O159   1.236       .  S
C146        O183   1.272       .  A
Mg147       O176   2.157       .  S
Mg147       O191   2.324       .  S
Mg147       O187   2.271       .  S
Mg147       O158   2.303       .  S
O148       Mg190   2.153       .  S
O148       Mg173   2.151       .  S
O148        C169   1.235   1_565  S
O149        C180   1.271   1_565  A
O149       Mg173   2.303   1_455  S
C150        C266   1.484       .  S
C150        O152   1.275       .  A
C150        O164   1.275   1_455  A
O151        C179   1.271   1_565  A
O151       Mg153   2.307       .  S
O152       Mg184   2.285       .  S
Mg153       O159   2.166   1_455  S
Mg153       O167   2.281       .  S
Mg153       O155   2.311       .  S
C154        C386   1.488       .  S
C154        O192   1.273       .  A
C154        O160   1.277   1_545  A
O155        C162   1.275       .  A
H156        C169   1.081   1_565  S
C157        H734   1.081       .  S
C157        O171   1.236       .  S
C157        O172   1.271       .  A
O158        C181   1.270       .  A
O159       Mg173   2.161       .  S
O160       Mg190   2.313       .  S
C161        C446   1.485       .  S
C161        O174   1.274       .  A
C161        O166   1.277       .  A
C162        C197   1.488       .  S
C162        O189   1.273   1_455  A
Mg163       O170   2.163   1_655  S
Mg163       O171   2.164       .  S
Mg163       O164   2.303       .  S
Mg163       O165   2.295       .  S
Mg163       O192   2.277       .  S
O165        C169   1.269       .  A
O166       Mg173   2.312       .  S
O167        C186   1.274   1_565  A
O168        C188   1.279       .  A
O168       Mg184   2.329       .  S
O170       Mg184   2.154       .  S
O170        C181   1.235       .  S
O171       Mg190   2.158   1_545  S
O172       Mg184   2.304   1_655  S
Mg173       O189   2.276       .  S
O174       Mg190   2.291       .  S
H175        C180   1.081       .  S
O176       Mg184   2.166       .  S
O176        C179   1.235       .  S
H177        C731   1.081   1_554  S
H178        C181   1.081       .  S
C179        H729   1.081       .  S
H182        C709   1.081   1_554  S
O183       Mg190   2.310       .  S
C186        C326   1.493       .  S
C186        O191   1.277       .  A
O187        C188   1.273       .  A
C188        C497   1.492       .  S
C193        C194   1.405   1_655  A
C193        C198   1.399       .  A
C193        H203   1.083       .  S
C194        C199   1.486       .  S
C194        C195   1.405       .  A
C195        C196   1.401       .  A
C195        H200   1.083       .  S
C196        C197   1.408       .  A
C196        H201   1.083       .  S
C197        C198   1.407   1_455  A
C198        H202   1.083       .  S
C199        C204   1.408       .  A
C199        C208   1.404       .  A
C204        C205   1.403       .  A
C204        H209   1.083   1_455  S
C205        C206   1.403       .  A
C205        H210   1.083   1_455  S
C206        C207   1.404       .  A
C207        C208   1.396       .  A
C207        H211   1.083       .  S
C208        H212   1.083       .  S
C213        C214   1.407   1_655  A
C213        C218   1.396       .  A
C213        H223   1.083       .  S
C214        C219   1.488       .  S
C214        C215   1.409       .  A
C215        C216   1.400       .  A
C215        H220   1.083       .  S
C216        C217   1.401       .  A
C216        H221   1.083       .  S
C217        C218   1.400   1_455  A
C218        H222   1.083       .  S
C219        C224   1.405   1_455  A
C219        C228   1.409       .  A
C224        C225   1.393       .  A
C224        H229   1.083       .  S
C225        C226   1.401   1_655  A
C225        H230   1.084       .  S
C226        C227   1.403       .  A
C227        C228   1.403       .  A
C227        H231   1.083       .  S
C228        H232   1.083       .  S
C233        C234   1.408       .  A
C233        C238   1.400       .  A
C233        H243   1.083       .  S
C234        C791   1.493       .  S
C234        C235   1.408   1_455  A
C235        C236   1.401       .  A
C235        H240   1.083       .  S
C236        C237   1.404   1_655  A
C236        H241   1.082       .  S
C237        C238   1.403       .  A
C238        H242   1.083       .  S
C239        C786   1.492   1_554  S
C239        C244   1.408       .  A
C239        C248   1.409   1_455  A
C244        C245   1.400       .  A
C244        H249   1.083       .  S
C245        C246   1.401       .  A
C245        H250   1.083       .  S
C246        C247   1.403   1_455  A
C247        C248   1.401       .  A
C247        H251   1.083       .  S
C248        H252   1.083       .  S
C253        C258   1.392   1_556  A
C253        C806   1.407   1_455  A
C253        H263   1.082       .  S
C254        C259   1.494       .  S
C254        C255   1.412       .  A
C254        C805   1.407   1_655  A
C255        C256   1.405       .  A
C255        H260   1.082       .  S
C256        C257   1.402       .  A
C256        H261   1.083       .  S
C257        C650   1.473       .  S
C257        C810   1.399   1_655  A
C258        C809   1.399   1_454  A
C258        H262   1.084       .  S
C259        C264   1.408   1_655  A
C259        C268   1.408       .  A
C264        C265   1.398       .  A
C264        H269   1.082       .  S
C265        C266   1.404       .  A
C265        H270   1.083       .  S
C266        C267   1.407   1_455  A
C267        C268   1.401       .  A
C267        H271   1.083       .  S
C268        H272   1.082       .  S
C273        C274   1.409   1_455  A
C273        C278   1.399       .  A
C273        H283   1.082       .  S
C274        C279   1.491       .  S
C274        C275   1.409       .  A
C275        C276   1.397       .  A
C275        H280   1.082       .  S
C276        C277   1.400       .  A
C276        H281   1.083       .  S
C277        C278   1.401   1_655  A
C278        H282   1.083       .  S
C279        C284   1.409       .  A
C279        C288   1.407       .  A
C284        C285   1.401       .  A
C284        H289   1.082   1_655  S
C285        C286   1.404       .  A
C285        H290   1.082   1_655  S
C286        C287   1.402       .  A
C287        C288   1.394       .  A
C287        H291   1.083       .  S
C288        H292   1.082       .  S
C293        C294   1.406       .  A
C293        C298   1.397       .  A
C293        H303   1.083       .  S
C294        C299   1.487       .  S
C294        C295   1.408   1_655  A
C295        C296   1.400       .  A
C295        H300   1.083       .  S
C296        C297   1.402   1_455  A
C296        H301   1.083       .  S
C297        C298   1.401       .  A
C298        H302   1.083       .  S
C299        C304   1.408       .  A
C299        C308   1.406   1_655  A
C304        C305   1.399       .  A
C304        H309   1.083       .  S
C305        C306   1.403       .  A
C305        H310   1.083       .  S
C306        C307   1.403   1_655  A
C307        C308   1.398       .  A
C307        H311   1.083       .  S
C308        H312   1.083       .  S
C313        C314   1.410   1_565  A
C313        C318   1.403       .  A
C313        H323   1.083       .  S
C314        C319   1.495       .  S
C314        C315   1.408       .  A
C315        C316   1.397       .  A
C315        H320   1.082       .  S
C316        C317   1.401       .  A
C316        H321   1.084       .  S
C317        C318   1.402   1_545  A
C318        H322   1.083       .  S
C319        C324   1.408   1_545  A
C319        C328   1.408       .  A
C324        C325   1.401       .  A
C324        H329   1.083       .  S
C325        C326   1.407   1_565  A
C325        H330   1.083       .  S
C326        C327   1.408       .  A
C327        C328   1.403       .  A
C327        H331   1.083       .  S
C328        H332   1.083       .  S
C333        C334   1.408       .  A
C333        C338   1.399       .  A
C333        H343   1.083       .  S
C334        C339   1.485       .  S
C334        C335   1.404   1_545  A
C335        C336   1.395       .  A
C335        H340   1.083       .  S
C336        C337   1.404   1_565  A
C336        H341   1.083       .  S
C337        C338   1.403       .  A
C338        H342   1.082       .  S
C339        C344   1.407       .  A
C339        C348   1.408   1_545  A
C344        C345   1.396       .  A
C344        H349   1.083       .  S
C345        C346   1.400       .  A
C345        H350   1.083       .  S
C346        C347   1.401   1_545  A
C347        C348   1.398       .  A
C347        H351   1.083       .  S
C348        H352   1.083       .  S
C353        C354   1.409       .  A
C353        C358   1.400       .  A
C353        H363   1.083       .  S
C354        C359   1.490       .  S
C354        C355   1.408   1_545  A
C355        C356   1.399       .  A
C355        H360   1.082       .  S
C356        C357   1.401   1_565  A
C356        H361   1.083       .  S
C357        C637   1.485       .  S
C357        C358   1.401       .  A
C358        H362   1.083       .  S
C359        C364   1.407       .  A
C359        C368   1.408   1_545  A
C364        C365   1.398       .  A
C364        H369   1.083       .  S
C365        C366   1.404       .  A
C365        H370   1.082       .  S
C366        C367   1.404   1_545  A
C367        C368   1.399       .  A
C367        H371   1.082       .  S
C368        H372   1.083       .  S
C373        C374   1.412       .  A
C373        C378   1.405       .  A
C373        H383   1.082       .  S
C374        C379   1.498       .  S
C374        C375   1.407   1_545  A
C375        C376   1.396   1_565  A
C375        H380   1.082       .  S
C376        C377   1.403       .  A
C376        H381   1.084   1_545  S
C377        C378   1.402       .  A
C378        H382   1.083       .  S
C379        C384   1.409       .  A
C379        C388   1.409   1_545  A
C384        C385   1.401       .  A
C384        H389   1.082       .  S
C385        C386   1.406       .  A
C385        H390   1.083       .  S
C386        C387   1.406   1_545  A
C387        C388   1.400       .  A
C387        H391   1.083       .  S
C388        H392   1.082       .  S
C393        C394   1.405       .  A
C393        C398   1.398       .  A
C393        H403   1.083       .  S
C394        C399   1.480       .  S
C394        C395   1.406       .  A
C395        C396   1.399       .  A
C395        H400   1.083   1_545  S
C396        C397   1.402       .  A
C396        H401   1.083   1_545  S
C397        C398   1.402       .  A
C398        H402   1.083       .  S
C399        C404   1.402       .  A
C399        C408   1.406       .  A
C404        C405   1.394       .  A
C404        H409   1.083       .  S
C405        C406   1.403       .  A
C405        H410   1.083       .  S
C406        C407   1.404       .  A
C407        C408   1.402       .  A
C407        H411   1.083       .  S
C408        H412   1.083       .  S
C413        C414   1.412       .  A
C413        C418   1.401       .  A
C413        H423   1.082       .  S
C414        C419   1.503       .  S
C414        C415   1.410       .  A
C415        C416   1.403       .  A
C415        H420   1.082   1_545  S
C416        C417   1.403       .  A
C416        H421   1.083   1_545  S
C417        C638   1.493       .  S
C417        C418   1.401       .  A
C418        H422   1.083       .  S
C419        C424   1.407       .  A
C419        C428   1.413       .  A
C424        C425   1.397       .  A
C424        H429   1.082       .  S
C425        C426   1.406       .  A
C425        H430   1.082       .  S
C426        C427   1.405       .  A
C427        C428   1.408       .  A
C427        H431   1.082       .  S
C428        H432   1.082   1_545  S
C433        C434   1.406       .  A
C433        C438   1.394       .  A
C433        H443   1.083       .  S
C434        C439   1.494       .  S
C434        C435   1.410       .  A
C435        C436   1.406       .  A
C435        H440   1.083       .  S
C436        C437   1.405       .  A
C436        H441   1.082       .  S
C437        C438   1.403       .  A
C438        H442   1.083       .  S
C439        C444   1.407       .  A
C439        C448   1.409       .  A
C444        C445   1.398       .  A
C444        H449   1.083       .  S
C445        C446   1.404       .  A
C445        H450   1.083       .  S
C446        C447   1.407       .  A
C447        C448   1.405       .  A
C447        H451   1.083       .  S
C448        H452   1.083       .  S
C453        C454   1.410       .  A
C453        C458   1.399       .  A
C453        H463   1.082       .  S
C454        C459   1.494       .  S
C454        C455   1.409       .  A
C455        C456   1.399       .  A
C455        H460   1.082       .  S
C456        C457   1.402       .  A
C456        H461   1.083       .  S
C457        C458   1.402       .  A
C458        H462   1.083       .  S
C459        C464   1.410       .  A
C459        C468   1.406       .  A
C464        C465   1.403       .  A
C464        H469   1.082       .  S
C465        C466   1.403       .  A
C465        H470   1.079       .  S
C466        C467   1.404       .  A
C467        C468   1.395       .  A
C467        H471   1.083       .  S
C468        H472   1.082       .  S
C473        C474   1.412       .  A
C473        C478   1.400       .  A
C473        H483   1.081       .  S
C474       C1031   1.502   1_554  S
C474        C475   1.412       .  A
C475        C476   1.399       .  A
C475       H1032   1.081       .  S
C476        C477   1.402       .  A
C476        H481   1.083       .  S
C477        C478   1.402       .  A
C478        H482   1.083       .  S
C479       C1026   1.503       .  S
C479        C484   1.412       .  A
C479        C488   1.412       .  A
H480       C1027   1.081       .  S
C484        C485   1.400       .  A
C484        H489   1.081       .  S
C485        C486   1.399       .  A
C485        H490   1.082       .  S
C486        C487   1.399       .  A
C487        C488   1.400       .  A
C487        H491   1.083       .  S
C488        H492   1.081       .  S
C493        C494   1.407       .  A
C493        C498   1.403       .  A
C493       H1055   1.083       .  S
C494        C499   1.494       .  S
C494        C495   1.407       .  A
C495        C496   1.401       .  A
C495        H500   1.083       .  S
C496        C497   1.408       .  A
C496        H501   1.083       .  S
C497        C498   1.408       .  A
C498       H1054   1.083       .  S
C499        C508   1.407       .  A
C499       C1056   1.409       .  A
H502       C1050   1.083       .  S
H503       C1045   1.083       .  S
C504        C505   1.405       .  A
C504       C1051   1.410       .  A
C504        H509   1.083       .  S
C505       C1058   1.404       .  A
C505        H510   1.083       .  S
C506        C507   1.402       .  A
C506       C1057   1.405       .  A
C507        C508   1.398       .  A
C507        H511   1.083       .  S
C508        H512   1.083       .  S
C513        C514   1.409       .  A
C513        C518   1.397       .  A
C513        H523   1.082       .  S
C514        C519   1.494       .  S
C514        C515   1.409       .  A
C515        C516   1.398       .  A
C515        H520   1.082       .  S
C516        C517   1.404       .  A
C516        H521   1.083       .  S
C517        C518   1.402       .  A
C518        H522   1.083       .  S
C519        C524   1.410       .  A
C519        C528   1.410       .  A
C524        C525   1.398       .  A
C524        H529   1.082       .  S
C525        C526   1.399       .  A
C525        H530   1.083       .  S
C526        C527   1.398       .  A
C527        C528   1.396       .  A
C527        H531   1.083       .  S
C528        H532   1.082       .  S
C533        C534   1.409       .  A
C533        C538   1.406       .  A
C533        H543   1.083       .  S
C534        C539   1.492       .  S
C534        C535   1.405       .  A
C535        C536   1.399       .  A
C535        H540   1.083       .  S
C536        C537   1.403       .  A
C536        H541   1.083       .  S
C537        C538   1.405       .  A
C538        H542   1.083       .  S
C539        C544   1.407       .  A
C539        C548   1.409       .  A
C544        C545   1.401       .  A
C544        H549   1.083       .  S
C545        C546   1.403       .  A
C545        H550   1.083       .  S
C546        C547   1.403       .  A
C547        C548   1.403       .  A
C547        H551   1.083       .  S
C548        H552   1.083       .  S
N553        C554   1.357       .  A
N553       C1078   1.433   1_554  S
C554       C1058   1.484   1_554  S
C555        C556   1.378       .  A
C555        H558   1.082       .  S
C556        C557   1.383       .  A
C556        H559   1.082       .  S
C557       C1089   1.485       .  S
N560        C564   1.361       .  A
N560        C561   1.359       .  A
N560       C1038   1.437       .  S
C561        C989   1.483       .  S
C561        C562   1.383       .  A
C562        C563   1.371       .  A
C562        H565   1.082       .  S
C563        C564   1.383       .  A
C563        H566   1.082       .  S
C564       C1018   1.484       .  S
N567        C572   1.355       .  A
N567        C571   1.356       .  A
N567        H599   1.035       .  S
N568        C575   1.354       .  A
N568        C576   1.353       .  A
N569        C574   1.355       .  A
N569        C573   1.354       .  A
N569        H600   1.035       .  S
N570        C577   1.353       .  A
N570        C578   1.353       .  A
C571        C579   1.386       .  A
C571        C587   1.419       .  A
C572        C588   1.423       .  A
C572        C580   1.389       .  A
C573        C581   1.388       .  A
C573        C590   1.418       .  A
C574        C589   1.416       .  A
C574        C582   1.387       .  A
C575        C587   1.417       .  A
C575        C583   1.386       .  A
C576        C590   1.418       .  A
C576        C584   1.387       .  A
C577        C585   1.387       .  A
C577        C588   1.418       .  A
C578        C586   1.386       .  A
C578        C589   1.416       .  A
C579        C580   1.375       .  A
C579        H591   1.082       .  S
C580        H592   1.081       .  S
C581        C582   1.373       .  A
C581        H593   1.082       .  S
C582        H594   1.082       .  S
C583        C584   1.373       .  A
C583        H595   1.082       .  S
C584        H596   1.082       .  S
C585        C586   1.372       .  A
C585        H597   1.082       .  S
C586        H598   1.082       .  S
C587       C1098   1.491       .  S
C588       C1029   1.491       .  S
C589       C1009   1.487       .  S
C590       C1069   1.492       .  S
N601        C605   1.364       .  A
N601        C602   1.363       .  A
N601        C978   1.449       .  S
C602        C929   1.475       .  S
C602        C603   1.382       .  A
C603        C604   1.366       .  A
C603        H606   1.083       .  S
C604        C605   1.380       .  A
C604        H607   1.082       .  S
C605        C958   1.478       .  S
N608        C612   1.361       .  A
N608        C609   1.358       .  A
N608        C918   1.443       .  S
C609        C869   1.477       .  S
C609        C610   1.381       .  A
C610        C611   1.371       .  A
C610        H613   1.082       .  S
C611        C612   1.383       .  A
C611        H614   1.082       .  S
C612        C889   1.481       .  S
N615        C620   1.352       .  A
N615        C619   1.351       .  A
N615        H647   1.035       .  S
N616        C623   1.354       .  A
N616        C624   1.353       .  A
N617        H648   1.035       .  S
N618        C625   1.353       .  A
N618        C626   1.351       .  A
C619        C627   1.387       .  A
C619        C635   1.413       .  A
C620        C636   1.413       .  A
C620        C628   1.388       .  A
C621        C629   1.387       .  A
C622        C630   1.387       .  A
C623        C635   1.416       .  A
C623        C631   1.385       .  A
C624        C638   1.418       .  A
C624        C632   1.387       .  A
C625        C633   1.385       .  A
C625        C636   1.414       .  A
C626        C634   1.388       .  A
C626        C637   1.416       .  A
C627        C628   1.372       .  A
C627        H639   1.082       .  S
C628        H640   1.082       .  S
C629        C630   1.378       .  A
C629        H641   1.082       .  S
C630        H642   1.082       .  S
C631        C632   1.374       .  A
C631        H643   1.082       .  S
C632        H644   1.082       .  S
C633        C634   1.373       .  A
C633        H645   1.082       .  S
C634        H646   1.082       .  S
C635        C949   1.482       .  S
C636        C898   1.481       .  S
N649        C849   1.438   1_554  S
C650        C651   1.381       .  A
C651        C652   1.372       .  A
C651        H654   1.082       .  S
C652        C653   1.384       .  A
C652        H655   1.082       .  S
C653        C838   1.482       .  S
N656        C660   1.360       .  A
N656        C657   1.361       .  A
N656        C789   1.444       .  S
C657        C758   1.479       .  S
C657        C658   1.383       .  A
C658        C659   1.370       .  A
C658        H661   1.082       .  S
C659        C660   1.381       .  A
C659        H662   1.082       .  S
C660        C778   1.477       .  S
N663        C668   1.355   1_455  A
N663        C667   1.354       .  A
N663        H695   1.037       .  S
N664        C671   1.352       .  A
N664        C672   1.354       .  A
N665        C670   1.354   1_455  A
N665        C669   1.355   1_455  A
N665        H696   1.036       .  S
N666        C673   1.353       .  A
N666        C674   1.352       .  A
C667        C675   1.388   1_455  A
C667        C683   1.416       .  A
C668        C684   1.417       .  A
C668        C676   1.387       .  A
C669        C677   1.387       .  A
C669        C686   1.419   1_655  A
C670        C685   1.418       .  A
C670        C678   1.388       .  A
C671        C683   1.417       .  A
C671        C679   1.387       .  A
C672        C686   1.416       .  A
C672        C680   1.386       .  A
C673        C681   1.386       .  A
C673        C684   1.416       .  A
C674        C682   1.387       .  A
C674        C685   1.417       .  A
C675        C676   1.371       .  A
C675        H687   1.082       .  S
C676        H688   1.082       .  S
C677        C678   1.373       .  A
C677        H689   1.082       .  S
C678        H690   1.082       .  S
C679        C680   1.373       .  A
C679        H691   1.082       .  S
C680        H692   1.082       .  S
C681        C682   1.372       .  A
C681        H693   1.082       .  S
C682        H694   1.082       .  S
C683        C769   1.483       .  S
C684        C858   1.489       .  S
C685        C829   1.484       .  S
C686        C798   1.489       .  S
O697       Mg699   2.158       .  S
O697       Mg705   2.157   1_545  S
O697        C732   1.236       .  S
C698        H737   1.081   1_556  S
C698        O711   1.236       .  S
C698        O735   1.271       .  A
Mg699       O728   2.157       .  S
Mg699       O743   2.324       .  S
Mg699       O739   2.271       .  S
Mg699       O710   2.303       .  S
O700       Mg742   2.154       .  S
O700       Mg725   2.151       .  S
O700        C721   1.236   1_565  S
O701        C732   1.271   1_565  A
O701       Mg725   2.303   1_455  S
C702        C818   1.484       .  S
C702        O704   1.275       .  A
C702        O716   1.275   1_455  A
O703        C731   1.271   1_565  A
O703       Mg705   2.308       .  S
O704       Mg736   2.285       .  S
Mg705       O711   2.165   1_455  S
Mg705       O719   2.282       .  S
Mg705       O707   2.310       .  S
C706        C938   1.488       .  S
C706        O744   1.274       .  A
C706        O712   1.277   1_545  A
O707        C714   1.275       .  A
H708        C721   1.081   1_565  S
C709        O723   1.236       .  S
C709        O724   1.271       .  A
O710        C733   1.270       .  A
O711       Mg725   2.161       .  S
O712       Mg742   2.311       .  S
C713        C998   1.485       .  S
C713        O726   1.274       .  A
C713        O718   1.277       .  A
C714        C749   1.488       .  S
C714        O741   1.273   1_455  A
Mg715       O722   2.164   1_655  S
Mg715       O723   2.164       .  S
Mg715       O716   2.304       .  S
Mg715       O717   2.296       .  S
Mg715       O744   2.278       .  S
O717        C721   1.270       .  A
O718       Mg725   2.311       .  S
O719        C738   1.274   1_565  A
O720        C740   1.279       .  A
O720       Mg736   2.329       .  S
O722       Mg736   2.154       .  S
O722        C733   1.235       .  S
O723       Mg742   2.159   1_545  S
O724       Mg736   2.305   1_655  S
Mg725       O741   2.276       .  S
O726       Mg742   2.292       .  S
H727        C732   1.081       .  S
O728       Mg736   2.166       .  S
O728        C731   1.236       .  S
H730        C733   1.081       .  S
O735       Mg742   2.309       .  S
C738        C878   1.493       .  S
C738        O743   1.277       .  A
O739        C740   1.273       .  A
C740       C1049   1.492       .  S
C745        C746   1.405   1_655  A
C745        C750   1.400       .  A
C745        H755   1.083       .  S
C746        C751   1.486       .  S
C746        C747   1.405       .  A
C747        C748   1.401       .  A
C747        H752   1.083       .  S
C748        C749   1.408       .  A
C748        H753   1.083       .  S
C749        C750   1.407   1_455  A
C750        H754   1.083       .  S
C751        C756   1.408       .  A
C751        C760   1.403       .  A
C756        C757   1.403       .  A
C756        H761   1.083   1_455  S
C757        C758   1.403       .  A
C757        H762   1.083   1_455  S
C758        C759   1.404       .  A
C759        C760   1.396       .  A
C759        H763   1.083       .  S
C760        H764   1.083       .  S
C765        C766   1.407   1_655  A
C765        C770   1.396       .  A
C765        H775   1.083       .  S
C766        C771   1.488       .  S
C766        C767   1.409       .  A
C767        C768   1.400       .  A
C767        H772   1.083       .  S
C768        C769   1.401       .  A
C768        H773   1.083       .  S
C769        C770   1.400   1_455  A
C770        H774   1.083       .  S
C771        C776   1.406   1_455  A
C771        C780   1.409       .  A
C776        C777   1.393       .  A
C776        H781   1.083       .  S
C777        C778   1.401   1_655  A
C777        H782   1.084       .  S
C778        C779   1.403       .  A
C779        C780   1.403       .  A
C779        H783   1.083       .  S
C780        H784   1.083       .  S
C785        C786   1.408       .  A
C785        C790   1.401       .  A
C785        H795   1.083       .  S
C786        C787   1.408   1_455  A
C787        C788   1.400       .  A
C787        H792   1.083       .  S
C788        C789   1.404   1_655  A
C788        H793   1.082       .  S
C789        C790   1.403       .  A
C790        H794   1.083       .  S
C791        C796   1.408       .  A
C791        C800   1.409   1_455  A
C796        C797   1.400       .  A
C796        H801   1.083       .  S
C797        C798   1.402       .  A
C797        H802   1.083       .  S
C798        C799   1.403   1_455  A
C799        C800   1.401       .  A
C799        H803   1.083       .  S
C800        H804   1.083       .  S
C805        C810   1.392       .  A
C805        H815   1.082       .  S
C806        C811   1.493       .  S
C806        C807   1.412       .  A
C807        C808   1.405       .  A
C807        H812   1.082       .  S
C808        C809   1.402       .  A
C808        H813   1.083       .  S
C810        H814   1.084       .  S
C811        C816   1.408   1_655  A
C811        C820   1.408       .  A
C816        C817   1.398       .  A
C816        H821   1.082       .  S
C817        C818   1.404       .  A
C817        H822   1.083       .  S
C818        C819   1.407   1_455  A
C819        C820   1.401       .  A
C819        H823   1.083       .  S
C820        H824   1.082       .  S
C825        C826   1.410   1_455  A
C825        C830   1.399       .  A
C825        H835   1.082       .  S
C826        C831   1.491       .  S
C826        C827   1.409       .  A
C827        C828   1.397       .  A
C827        H832   1.082       .  S
C828        C829   1.400       .  A
C828        H833   1.083       .  S
C829        C830   1.401   1_655  A
C830        H834   1.083       .  S
C831        C836   1.409       .  A
C831        C840   1.407       .  A
C836        C837   1.401       .  A
C836        H841   1.082   1_655  S
C837        C838   1.404       .  A
C837        H842   1.082   1_655  S
C838        C839   1.402       .  A
C839        C840   1.394       .  A
C839        H843   1.083       .  S
C840        H844   1.082       .  S
C845        C846   1.407       .  A
C845        C850   1.397       .  A
C845        H855   1.083       .  S
C846        C851   1.488       .  S
C846        C847   1.408   1_655  A
C847        C848   1.401       .  A
C847        H852   1.083       .  S
C848        C849   1.402   1_455  A
C848        H853   1.083       .  S
C849        C850   1.401       .  A
C850        H854   1.083       .  S
C851        C856   1.408       .  A
C851        C860   1.407   1_655  A
C856        C857   1.399       .  A
C856        H861   1.083       .  S
C857        C858   1.403       .  A
C857        H862   1.083       .  S
C858        C859   1.403   1_655  A
C859        C860   1.398       .  A
C859        H863   1.083       .  S
C860        H864   1.083       .  S
C865        C866   1.410   1_565  A
C865        C870   1.404       .  A
C865        H875   1.083       .  S
C866        C871   1.496       .  S
C866        C867   1.408       .  A
C867        C868   1.397       .  A
C867        H872   1.082       .  S
C868        C869   1.401       .  A
C868        H873   1.084       .  S
C869        C870   1.402   1_545  A
C870        H874   1.083       .  S
C871        C876   1.408   1_545  A
C871        C880   1.408       .  A
C876        C877   1.401       .  A
C876        H881   1.083       .  S
C877        C878   1.407   1_565  A
C877        H882   1.083       .  S
C878        C879   1.408       .  A
C879        C880   1.403       .  A
C879        H883   1.083       .  S
C880        H884   1.083       .  S
C885        C886   1.408       .  A
C885        C890   1.400       .  A
C885        H895   1.083       .  S
C886        C891   1.486       .  S
C886        C887   1.404   1_545  A
C887        C888   1.395       .  A
C887        H892   1.083       .  S
C888        C889   1.404   1_565  A
C888        H893   1.083       .  S
C889        C890   1.403       .  A
C890        H894   1.082       .  S
C891        C896   1.407       .  A
C891        C900   1.408   1_545  A
C896        C897   1.396       .  A
C896        H901   1.083       .  S
C897        C898   1.400       .  A
C897        H902   1.083       .  S
C898        C899   1.401   1_545  A
C899        C900   1.398       .  A
C899        H903   1.083       .  S
C900        H904   1.083       .  S
C905        C906   1.409       .  A
C905        C910   1.399       .  A
C905        H915   1.083       .  S
C906        C911   1.490       .  S
C906        C907   1.408   1_545  A
C907        C908   1.398       .  A
C907        H912   1.082       .  S
C908        C909   1.401   1_565  A
C908        H913   1.083       .  S
C909        C910   1.401       .  A
C910        H914   1.083       .  S
C911        C916   1.407       .  A
C911        C920   1.408   1_545  A
C916        C917   1.398       .  A
C916        H921   1.082       .  S
C917        C918   1.403       .  A
C917        H922   1.082       .  S
C918        C919   1.404   1_545  A
C919        C920   1.399       .  A
C919        H923   1.082       .  S
C920        H924   1.082       .  S
C925        C926   1.412       .  A
C925        C930   1.404       .  A
C925        H935   1.082       .  S
C926        C931   1.498       .  S
C926        C927   1.407   1_545  A
C927        C928   1.396   1_565  A
C927        H932   1.082       .  S
C928        C929   1.403       .  A
C928        H933   1.084   1_545  S
C929        C930   1.402       .  A
C930        H934   1.083       .  S
C931        C936   1.410       .  A
C931        C940   1.409   1_545  A
C936        C937   1.401       .  A
C936        H941   1.082       .  S
C937        C938   1.406       .  A
C937        H942   1.083       .  S
C938        C939   1.407   1_545  A
C939        C940   1.400       .  A
C939        H943   1.083       .  S
C940        H944   1.082       .  S
C945        C946   1.405       .  A
C945        C950   1.398       .  A
C945        H955   1.083       .  S
C946        C951   1.480       .  S
C946        C947   1.406       .  A
C947        C948   1.399       .  A
C947        H952   1.083   1_545  S
C948        C949   1.402       .  A
C948        H953   1.083   1_545  S
C949        C950   1.402       .  A
C950        H954   1.083       .  S
C951        C956   1.402       .  A
C951        C960   1.407       .  A
C956        C957   1.394       .  A
C956        H961   1.083       .  S
C957        C958   1.403       .  A
C957        H962   1.083       .  S
C958        C959   1.404       .  A
C959        C960   1.402       .  A
C959        H963   1.083       .  S
C960        H964   1.083       .  S
C965        C966   1.412       .  A
C965        C970   1.401       .  A
C965        H975   1.082       .  S
C966        C971   1.503       .  S
C966        C967   1.411       .  A
C967        C968   1.403       .  A
C967        H972   1.082   1_545  S
C968        C969   1.403       .  A
C968        H973   1.083   1_545  S
C969        C970   1.401       .  A
C970        H974   1.083       .  S
C971        C976   1.407       .  A
C971        C980   1.413       .  A
C976        C977   1.397       .  A
C976        H981   1.082       .  S
C977        C978   1.406       .  A
C977        H982   1.082       .  S
C978        C979   1.405       .  A
C979        C980   1.407       .  A
C979        H983   1.082       .  S
C980        H984   1.082       .  S
C985        C986   1.406       .  A
C985        C990   1.394       .  A
C985        H995   1.083       .  S
C986        C991   1.494       .  S
C986        C987   1.410       .  A
C987        C988   1.406       .  A
C987        H992   1.083       .  S
C988        C989   1.405       .  A
C988        H993   1.082       .  S
C989        C990   1.402       .  A
C990        H994   1.083       .  S
C991        C996   1.407       .  A
C991       C1000   1.409       .  A
C996        C997   1.398       .  A
C996       H1001   1.083       .  S
C997        C998   1.404       .  A
C997       H1002   1.083       .  S
C998        C999   1.407       .  A
C999       C1000   1.405       .  A
C999       H1003   1.083       .  S
C1000      H1004   1.083       .  S
C1005      C1006   1.409       .  A
C1005      C1010   1.399       .  A
C1005      H1015   1.082       .  S
C1006      C1011   1.493       .  S
C1006      C1007   1.409       .  A
C1007      C1008   1.399       .  A
C1007      H1012   1.082       .  S
C1008      C1009   1.402       .  A
C1008      H1013   1.083       .  S
C1009      C1010   1.402       .  A
C1010      H1014   1.083       .  S
C1011      C1016   1.410       .  A
C1011      C1020   1.406       .  A
C1016      C1017   1.403       .  A
C1016      H1021   1.082       .  S
C1017      C1018   1.403       .  A
C1017      H1022   1.079       .  S
C1018      C1019   1.404       .  A
C1019      C1020   1.396       .  A
C1019      H1023   1.083       .  S
C1020      H1024   1.082       .  S
C1025      C1026   1.412       .  A
C1025      C1030   1.400       .  A
C1025      H1035   1.081       .  S
C1026      C1027   1.412       .  A
C1027      C1028   1.399       .  A
C1028      C1029   1.401       .  A
C1028      H1033   1.083       .  S
C1029      C1030   1.402       .  A
C1030      H1034   1.083       .  S
C1031      C1036   1.412       .  A
C1031      C1040   1.412       .  A
C1036      C1037   1.400       .  A
C1036      H1041   1.081       .  S
C1037      C1038   1.399       .  A
C1037      H1042   1.082       .  S
C1038      C1039   1.400       .  A
C1039      C1040   1.400       .  A
C1039      H1043   1.083       .  S
C1040      H1044   1.081       .  S
C1045      C1046   1.407       .  A
C1045      C1050   1.403       .  A
C1046      C1051   1.495       .  S
C1046      C1047   1.407       .  A
C1047      C1048   1.402       .  A
C1047      H1052   1.083       .  S
C1048      C1049   1.408       .  A
C1048      H1053   1.083       .  S
C1049      C1050   1.407       .  A
C1051      C1060   1.407       .  A
C1056      C1057   1.405       .  A
C1056      H1061   1.083       .  S
C1057      H1062   1.083       .  S
C1058      C1059   1.402   1_556  A
C1059      C1060   1.399   1_554  A
C1059      H1063   1.083       .  S
C1060      H1064   1.083       .  S
C1065      C1066   1.409       .  A
C1065      C1070   1.397       .  A
C1065      H1075   1.082       .  S
C1066      C1071   1.493       .  S
C1066      C1067   1.409       .  A
C1067      C1068   1.398       .  A
C1067      H1072   1.082       .  S
C1068      C1069   1.404       .  A
C1068      H1073   1.083       .  S
C1069      C1070   1.402       .  A
C1070      H1074   1.083       .  S
C1071      C1076   1.410       .  A
C1071      C1080   1.410       .  A
C1076      C1077   1.399       .  A
C1076      H1081   1.082       .  S
C1077      C1078   1.399       .  A
C1077      H1082   1.083       .  S
C1078      C1079   1.398       .  A
C1079      C1080   1.396       .  A
C1079      H1083   1.083       .  S
C1080      H1084   1.082       .  S
C1085      C1086   1.409       .  A
C1085      C1090   1.405       .  A
C1085      H1095   1.083       .  S
C1086      C1091   1.492       .  S
C1086      C1087   1.405       .  A
C1087      C1088   1.399       .  A
C1087      H1092   1.083       .  S
C1088      C1089   1.404       .  A
C1088      H1093   1.083       .  S
C1089      C1090   1.405       .  A
C1090      H1094   1.083       .  S
C1091      C1096   1.407       .  A
C1091      C1100   1.408       .  A
C1096      C1097   1.401       .  A
C1096      H1101   1.083       .  S
C1097      C1098   1.403       .  A
C1097      H1102   1.083       .  S
C1098      C1099   1.403       .  A
C1099      C1100   1.403       .  A
C1099      H1103   1.083       .  S
C1100      H1104   1.083       .  S
