geometry optimzed in LAMMPS
_audit_creation_date              2020-11-30 
_audit_creation_method            'lammps2cif' 
_symmetry_space_group_name_H-M    'P1' 
_symmetry_Int_Tables_number       1 
_symmetry_cell_setting            triclinic 
loop_ 
_symmetry_equiv_pos_as_xyz 
  x,y,z 
_cell_length_a                    30.6736111 
_cell_length_b                    30.695249081732392 
_cell_length_c                    61.40006784820058 
_cell_angle_alpha                 90.00403520803296 
_cell_angle_beta                  89.98044140702896 
_cell_angle_gamma                 90.0577496363476 
loop_ 
_atom_site_label 
_atom_site_type_symbol 
_atom_site_fract_x 
_atom_site_fract_y 
_atom_site_fract_z 
_atom_site_charge 
O1          O  0.04954391  0.92277852  0.12617693    -0.73100
O2          O  0.04618637  0.05324518  0.13010977    -0.74100
O3          O  0.04652673  0.98469421  0.16069300    -0.62700
O4          O  0.04901908  0.99197291  0.09537421    -0.71200
O5          O  0.97694547  0.98990982  0.09457751    -0.70700
O6          O  0.97431548  0.98375514  0.15970543    -0.62000
O7          O  0.97382927  0.05163428  0.12848297    -0.74500
O8          O  0.97735190  0.92113230  0.12527644    -0.73300
Cu9        Cu  0.05035124  0.98813051  0.12810549     1.04600
Cu10       Cu  0.97311736  0.98640279  0.12702055     1.04300
C11         C  0.01393047  0.90127249  0.12493078     0.93000
C12         C  0.00951106  0.07288489  0.12983926     0.92200
C13         C  0.00985026  0.98437641  0.17057234     0.84300
C14         C  0.01339415  0.99244547  0.08458142     0.90600
O15         O  0.05576105  0.41999050  0.12578984    -0.73100
O16         O  0.05811576  0.55087647  0.12254155    -0.74100
O17         O  0.05865452  0.48845524  0.15690091    -0.62700
O18         O  0.05538700  0.48204617  0.09152822    -0.71200
O19         O  0.98309888  0.48538779  0.09252030    -0.70700
O20         O  0.98652815  0.48868415  0.15761083    -0.62000
O21         O  0.98597614  0.55203525  0.12411359    -0.74500
O22         O  0.98354655  0.42154553  0.12616388    -0.73300
Cu23       Cu  0.05953867  0.48529571  0.12415811     1.04600
Cu24       Cu  0.98232960  0.48691429  0.12512580     1.04300
C25         C  0.01919628  0.40002491  0.12642918     0.93000
C26         C  0.02233499  0.57222143  0.12281887     0.92200
C27         C  0.02299446  0.48921206  0.16766630     0.84300
C28         C  0.01865304  0.48333352  0.08174896     0.90600
O29         O  0.46115310  0.94961329  0.12273069    -0.73100
O30         O  0.46762004  0.07981739  0.12360936    -0.74100
O31         O  0.46459982  0.01529771  0.09054608    -0.62700
O32         O  0.46425756  0.01367963  0.15585343    -0.71200
O33         O  0.53642132  0.01097964  0.15574182    -0.70700
O34         O  0.53664973  0.01151927  0.09058158    -0.62000
O35         O  0.53978501  0.07708962  0.12314137    -0.74500
O36         O  0.53326811  0.94639845  0.12293032    -0.73300
Cu37       Cu  0.46192278  0.01482954  0.12318081     1.04600
Cu38       Cu  0.53905001  0.01147546  0.12311318     1.04300
C39         C  0.49623048  0.92725921  0.12264819     0.93000
C40         C  0.50448163  0.09917665  0.12350015     0.92200
C41         C  0.50066192  0.01284210  0.08018257     0.84300
C42         C  0.50035864  0.01164705  0.16617634     0.90600
O43         O  0.53804459  0.51433653  0.15588499    -0.73100
O44         O  0.53591630  0.51536398  0.09063557    -0.74100
O45         O  0.53375638  0.57987409  0.12331023    -0.62700
O46         O  0.54028585  0.44981329  0.12310783    -0.71200
O47         O  0.46806873  0.44631001  0.12263233    -0.70700
O48         O  0.46153306  0.57702497  0.12503347    -0.62000
O49         O  0.46359529  0.51456283  0.09113164    -0.74500
O50         O  0.46604696  0.50965062  0.15659854    -0.73300
Cu51       Cu  0.53945502  0.51496500  0.12323545     1.04600
Cu52       Cu  0.46223750  0.51167543  0.12388870     1.04300
C53         C  0.50252324  0.51156846  0.16664688     0.93000
C54         C  0.49948587  0.51594805  0.08056031     0.92200
C55         C  0.49683918  0.59902973  0.12402463     0.84300
C56         C  0.50521763  0.42740254  0.12276968     0.90600
O57         O  0.04447319  0.91693269  0.87898457    -0.73100
O58         O  0.03806693  0.04772869  0.87659355    -0.74100
O59         O  0.04139968  0.98554488  0.91036974    -0.65900
O60         O  0.04122274  0.98063363  0.84525616    -0.71200
O61         O  0.96919311  0.97715025  0.84524917    -0.70700
O62         O  0.96912045  0.98136430  0.91043579    -0.62000
O63         O  0.96575869  0.04435149  0.87625470    -0.74500
O64         O  0.97228461  0.91391379  0.87870911    -0.73300
Cu65       Cu  0.04380821  0.98269686  0.87784184     1.04600
Cu66       Cu  0.96658154  0.97896674  0.87774363     1.04300
C67         C  0.00921281  0.89466172  0.87889925     0.93000
C68         C  0.00098805  0.06655527  0.87566083     0.92200
C69         C  0.00525327  0.98463386  0.92066902     0.84300
C70         C  0.00522612  0.97913240  0.83484358     0.90600
O71         O  0.96022204  0.41532362  0.87472923    -0.73100
O72         O  0.96423442  0.54604985  0.87711077    -0.74100
O73         O  0.95739272  0.48346490  0.84330312    -0.62700
O74         O  0.96704104  0.47801004  0.90837806    -0.71200
O75         O  0.03888432  0.47648101  0.90553060    -0.70700
O76         O  0.02933612  0.48165061  0.84050362    -0.62000
O77         O  0.03617451  0.54427862  0.87399490    -0.74500
O78         O  0.03226362  0.41363926  0.87158230    -0.73300
Cu79       Cu  0.95971301  0.48074612  0.87596890     1.04600
Cu80       Cu  0.03665178  0.47889693  0.87284086     1.04300
C81         C  0.99567915  0.39384812  0.87281155     0.93000
C82         C  0.00078385  0.56589470  0.87583445     0.92200
C83         C  0.99179380  0.48366098  0.83155506     0.84300
C84         C  0.00459505  0.47644500  0.91735624     0.90600
O85         O  0.53159606  0.93339718  0.87381725    -0.73100
O86         O  0.53373489  0.06413005  0.87425413    -0.74100
O87         O  0.53174410  0.99868483  0.90656340    -0.62700
O88         O  0.53391439  0.99901250  0.84143952    -0.71200
O89         O  0.46179916  0.00206277  0.84108061    -0.70700
O90         O  0.45937034  0.99699961  0.90614767    -0.62000
O91         O  0.46142406  0.06487330  0.87510454    -0.74500
O92         O  0.45940057  0.93466221  0.87229285    -0.73300
Cu93       Cu  0.53530604  0.99876682  0.87404324     1.04600
Cu94       Cu  0.45800619  0.99972522  0.87362193     1.04300
C95         C  0.49510231  0.91334528  0.87268472     0.93000
C96         C  0.49781619  0.08513489  0.87500399     0.92200
C97         C  0.49530389  0.99764491  0.91662056     0.84300
C98         C  0.49805956  0.00026270  0.83087801     0.90600
O99         O  0.45977389  0.43495323  0.87543802    -0.73100
O100        O  0.46133918  0.56485123  0.87208461    -0.74100
O101        O  0.45893871  0.49661388  0.84115744    -0.62700
O102        O  0.46260864  0.50380931  0.90630462    -0.71200
O103        O  0.53477963  0.50383750  0.90531791    -0.70700
O104        O  0.53111168  0.49500829  0.84007866    -0.62000
O105        O  0.53357709  0.56447592  0.87050548    -0.74500
O106        O  0.53195536  0.43382596  0.87476595    -0.73300
Cu107      Cu  0.45821557  0.49999453  0.87377701     1.04600
Cu108      Cu  0.53541786  0.49915468  0.87263985     1.04300
C109        C  0.49548063  0.41363559  0.87548647     0.93000
C110        C  0.49751262  0.58529429  0.87079477     0.92200
C111        C  0.49440458  0.49492330  0.83025204     0.84300
C112        C  0.49925628  0.50589062  0.91615683     0.90600
O113        O  0.00341820  0.04521368  0.40929415    -0.73100
O114        O  0.00059907  0.03594288  0.34390702    -0.74100
O115        O  0.93620933  0.03954777  0.37746708    -0.62700
O116        O  0.06744316  0.04148060  0.37566529    -0.71200
O117        O  0.06806813  0.96944160  0.37863899    -0.70700
O118        O  0.93778064  0.96756624  0.37974517    -0.62000
O119        O  0.00228588  0.96405523  0.34650107    -0.74500
O120        O  0.00427562  0.97321758  0.41146596    -0.73300
Cu121      Cu  0.00180769  0.04313270  0.37648073     1.04600
Cu122      Cu  0.00304922  0.96616236  0.37914579     1.04300
C123        C  0.00457469  0.01046482  0.42074861     0.93000
C124        C  0.00156226  0.99846285  0.33480885     0.92200
C125        C  0.91619478  0.00310645  0.37899645     0.84300
C126        C  0.08837194  0.00559199  0.37706518     0.90600
O127        O  0.00907448  0.54995076  0.34115877    -0.73100
O128        O  0.00620264  0.55616248  0.40651099    -0.74100
O129        O  0.07277382  0.55119569  0.37455438    -0.62700
O130        O  0.94218654  0.55479229  0.37323963    -0.71200
O131        O  0.94072629  0.48276340  0.37590075    -0.70700
O132        O  0.07064494  0.47901977  0.37511840    -0.62000
O133        O  0.00678311  0.48393703  0.40802069    -0.74500
O134        O  0.00546180  0.47799723  0.34287257    -0.73300
Cu135      Cu  0.00758684  0.55560017  0.37377854     1.04600
Cu136      Cu  0.00573743  0.47847609  0.37551204     1.04300
C137        C  0.00800813  0.51294571  0.33162720     0.93000
C138        C  0.00646260  0.52090326  0.41757756     0.92200
C139        C  0.09235141  0.51445648  0.37491699     0.84300
C140        C  0.92077676  0.51918377  0.37468322     0.90600
O141        O  0.43817389  0.03256544  0.37227055    -0.73100
O142        O  0.56833449  0.02706039  0.37621845    -0.74100
O143        O  0.50721805  0.03005292  0.34132105    -0.62700
O144        O  0.49951987  0.02932868  0.40662443    -0.71200
O145        O  0.49566192  0.95718187  0.40628843    -0.70700
O146        O  0.50442404  0.95807842  0.34096465    -0.62000
O147        O  0.56567171  0.95489836  0.37591085    -0.74500
O148        O  0.43501318  0.96040612  0.37149232    -0.73300
Cu149      Cu  0.50344279  0.03222554  0.37405994     1.04600
Cu150      Cu  0.50013808  0.95511612  0.37361554     1.04300
C151        C  0.41592782  0.99739245  0.37144422     0.93000
C152        C  0.58765229  0.99024257  0.37700393     0.92200
C153        C  0.50684913  0.99419784  0.33069098     0.84300
C154        C  0.49614489  0.99314842  0.41678041     0.90600
O155        O  0.57103046  0.47837812  0.37409713    -0.73100
O156        O  0.44062380  0.48036565  0.37526936    -0.74100
O157        O  0.50443271  0.47907791  0.34176965    -0.62700
O158        O  0.50691148  0.48007176  0.40720961    -0.71200
O159        O  0.50683004  0.55223531  0.40669300    -0.70700
O160        O  0.50674381  0.55106763  0.34166524    -0.62000
O161        O  0.44187806  0.55245996  0.37435456    -0.74500
O162        O  0.57207663  0.55054115  0.37431110    -0.73300
Cu163      Cu  0.50576510  0.47691505  0.37455379     1.04600
Cu164      Cu  0.50698212  0.55402848  0.37420742     1.04300
C165        C  0.59228721  0.51416709  0.37434368     0.93000
C166        C  0.42051844  0.51679433  0.37509222     0.92200
C167        C  0.50493188  0.51509426  0.33127846     0.84300
C168        C  0.50658904  0.51650549  0.41729858     0.90600
O169        O  0.98968172  0.96299372  0.59462155    -0.73100
O170        O  0.98788610  0.95906781  0.65985517    -0.74100
O171        O  0.92318595  0.96255790  0.62676532    -0.62700
O172        O  0.05396683  0.95927446  0.62769322    -0.71200
O173        O  0.05553223  0.03125236  0.62889573    -0.70700
O174        O  0.92481207  0.03470462  0.62844121    -0.62000
O175        O  0.99018716  0.03120643  0.66114897    -0.74500
O176        O  0.99130046  0.03513507  0.59592809    -0.73300
Cu177      Cu  0.98852023  0.95846841  0.62720695     1.04600
Cu178      Cu  0.99041339  0.03557710  0.62862699     1.04300
C179        C  0.99126496  0.99978226  0.58492397     0.93000
C180        C  0.98927505  0.99440669  0.67083710     0.92200
C181        C  0.90327830  0.99908438  0.62739541     0.84300
C182        C  0.07562007  0.99484444  0.62847554     0.90600
O183        O  0.98650980  0.47559668  0.59143601    -0.73100
O184        O  0.98133805  0.47332437  0.65674613    -0.74100
O185        O  0.91828154  0.47418209  0.62291429    -0.62700
O186        O  0.04893622  0.47408291  0.62540120    -0.71200
O187        O  0.04940320  0.54639979  0.62512001    -0.70700
O188        O  0.91847938  0.54625474  0.62441656    -0.62000
O189        O  0.98300657  0.54542550  0.65747371    -0.74500
O190        O  0.98545189  0.54773138  0.59220184    -0.73300
Cu191      Cu  0.98368536  0.47179363  0.62410194     1.04600
Cu192      Cu  0.98398885  0.54896262  0.62483173     1.04300
C193        C  0.98720199  0.51213306  0.58144756     0.93000
C194        C  0.98202674  0.50898845  0.66750725     0.92200
C195        C  0.89756988  0.51025529  0.62363894     0.84300
C196        C  0.06978086  0.51011192  0.62525601     0.90600
O197        O  0.49193601  0.03262275  0.65611534    -0.73100
O198        O  0.48486958  0.03164799  0.59078378    -0.74100
O199        O  0.42308514  0.02866611  0.62497677    -0.62700
O200        O  0.55347457  0.03593555  0.62183436    -0.71200
O201        O  0.55695390  0.96370449  0.62332632    -0.70700
O202        O  0.42664369  0.95640567  0.62522599    -0.62000
O203        O  0.49027828  0.95954827  0.59131742    -0.74500
O204        O  0.49415938  0.96043493  0.65644649    -0.73300
Cu205      Cu  0.48809196  0.03476958  0.62340184     1.04600
Cu206      Cu  0.49203108  0.95752217  0.62400663     1.04300
C207        C  0.49480550  0.99672792  0.66659369     0.93000
C208        C  0.48734316  0.99528448  0.58073902     0.92200
C209        C  0.40433730  0.99150574  0.62562977     0.84300
C210        C  0.57572344  0.00084332  0.62274258     0.90600
O211        O  0.48330551  0.54448986  0.59138870    -0.73100
O212        O  0.48439039  0.54290635  0.65657120    -0.74100
O213        O  0.54896597  0.54391652  0.62338351    -0.62700
O214        O  0.41807724  0.54316353  0.62442414    -0.71200
O215        O  0.41810388  0.47096305  0.62239250    -0.70700
O216        O  0.54868611  0.47156847  0.62445855    -0.62000
O217        O  0.48130262  0.47067837  0.65593220    -0.74500
O218        O  0.48537216  0.47225118  0.59085500    -0.73300
Cu219      Cu  0.48358675  0.54618381  0.62395369     1.04600
Cu220      Cu  0.48335491  0.46885558  0.62338818     1.04300
C221        C  0.48504763  0.50868763  0.58081665     0.93000
C222        C  0.48253320  0.50643836  0.66655358     0.92200
C223        C  0.56937120  0.50767709  0.62387916     0.84300
C224        C  0.39745603  0.50698619  0.62352488     0.90600
C225        C  0.84912216  0.50995263  0.62366176    -0.20100
C226        C  0.82450437  0.54327860  0.63382582     0.36100
C227        C  0.77878384  0.54029295  0.63417063    -0.26000
C228        C  0.75714931  0.50543660  0.62423068     0.02600
C229        C  0.78129772  0.47250736  0.61381080     0.27400
C230        C  0.82708856  0.47482871  0.61384399    -0.25200
N231        N  0.84577534  0.57948820  0.64421805    -0.82600
H232        H  0.75976104  0.56558873  0.64199464     0.13200
C233        C  0.70899744  0.50499988  0.62416227     0.02600
N234        N  0.75920140  0.43754804  0.60278091    -0.81100
H235        H  0.84565404  0.44937403  0.60588722     0.18000
C236        C  0.68684659  0.52777644  0.60777210    -0.26000
C237        C  0.64106480  0.52927749  0.60742182     0.36100
C238        C  0.61731948  0.50733227  0.62374830    -0.20000
C239        C  0.63949668  0.48443050  0.64009671    -0.25200
C240        C  0.68528756  0.48351990  0.64064071     0.27400
H241        H  0.70542070  0.54445070  0.59527394     0.13200
N242        N  0.61858201  0.55245207  0.59045706    -0.82500
H243        H  0.62098288  0.46794727  0.65268344     0.18000
N244        N  0.70778387  0.46202632  0.65813860    -0.81100
H245        H  0.64086750  0.56686673  0.57975885     0.33700
H246        H  0.60094413  0.52965848  0.58136412     0.38200
H247        H  0.68549532  0.44884024  0.66922046     0.33600
H248        H  0.72500809  0.43579575  0.65156360     0.30300
H249        H  0.78171049  0.41652445  0.59550555     0.33600
H250        H  0.74252800  0.41922306  0.61445650     0.30300
H251        H  0.85858630  0.59926110  0.63191606     0.38200
H252        H  0.82310530  0.59876113  0.65250908     0.33700
C253        C  0.11784299  0.50951623  0.62494672    -0.20100
C254        C  0.14171507  0.53754400  0.61114128     0.36100
C255        C  0.18744610  0.53509314  0.61093680    -0.26000
C256        C  0.20948133  0.50530289  0.62423652     0.02600
C257        C  0.18579145  0.47762356  0.63819923     0.27400
C258        C  0.14004142  0.47967563  0.63823753    -0.25200
N259        N  0.11944000  0.56775422  0.59713491    -0.82600
H260        H  0.20607382  0.55642177  0.60037564     0.13200
C261        C  0.25757075  0.50481738  0.62400047     0.02600
N262        N  0.20833470  0.44848083  0.65265394    -0.81100
H263        H  0.12160995  0.45839829  0.64890967     0.18000
C264        C  0.28007440  0.53372598  0.63758920    -0.26000
C265        C  0.32583205  0.53491724  0.63774685     0.36100
C266        C  0.34933779  0.50664441  0.62393136    -0.20000
C267        C  0.32666607  0.47742995  0.61043778    -0.25200
C268        C  0.28084374  0.47653488  0.61017675     0.27400
H269        H  0.26176772  0.55530576  0.64814654     0.13200
N270        N  0.34849402  0.56411749  0.65214593    -0.82500
H271        H  0.34477797  0.45587383  0.59978499     0.18000
N272        N  0.25787482  0.44799806  0.59555989    -0.81100
H273        H  0.32636801  0.58280461  0.66111670     0.33700
H274        H  0.36564866  0.54514015  0.66338956     0.38200
H275        H  0.27986147  0.43003455  0.58615126     0.33600
H276        H  0.24050470  0.42547836  0.60492382     0.30300
H277        H  0.18610458  0.43115904  0.66224978     0.33600
H278        H  0.22471033  0.42547386  0.64316966     0.30300
H279        H  0.10133386  0.54960762  0.58590594     0.38200
H280        H  0.14181501  0.58607940  0.58810970     0.33700
C281        C  0.85499671  0.00028180  0.62685877    -0.20100
C282        C  0.83064351  0.96915575  0.61499131     0.36100
C283        C  0.78494798  0.97197366  0.61467538    -0.26000
C284        C  0.76320490  0.00499212  0.62601199     0.02600
C285        C  0.78715073  0.03557079  0.63821445     0.27400
C286        C  0.83293531  0.03320739  0.63833362    -0.25200
N287        N  0.85233286  0.93531919  0.60298745    -0.82600
H288        H  0.76608668  0.94838887  0.60550861     0.13200
C289        C  0.71511967  0.00605061  0.62545019     0.02600
N290        N  0.76482511  0.06815843  0.65079576    -0.81100
H291        H  0.85146187  0.05673866  0.64769145     0.18000
C292        C  0.69187264  0.98181893  0.64088920    -0.26000
C293        C  0.64616923  0.98018535  0.64035902     0.36100
C294        C  0.62355737  0.00304684  0.62395192    -0.20000
C295        C  0.64677577  0.02808048  0.60875983    -0.25200
C296        C  0.69260073  0.02950576  0.60924038     0.27400
H297        H  0.70953868  0.96401402  0.65330699     0.13200
N298        N  0.62253001  0.95586735  0.65654304    -0.82500
H299        H  0.62915902  0.04566951  0.59624773     0.18000
N300        N  0.71641119  0.05362914  0.59306476    -0.81100
H301        H  0.64402600  0.94088475  0.66741923     0.33700
H302        H  0.60417716  0.97805081  0.66565356     0.38200
H303        H  0.69498147  0.06835217  0.58206598     0.33600
H304        H  0.73290626  0.07886718  0.60098092     0.30300
H305        H  0.78716389  0.08755929  0.65923829     0.33600
H306        H  0.74852070  0.08874015  0.63995786     0.30300
H307        H  0.86997833  0.95031180  0.59051232     0.38200
H308        H  0.82964330  0.91482898  0.59543729     0.33700
C309        C  0.35640280  0.98937351  0.62650754    -0.20100
C310        C  0.33448409  0.96134434  0.64107986     0.36100
C311        C  0.28862613  0.96075921  0.64130653    -0.26000
C312        C  0.26456105  0.98756012  0.62722281     0.02600
C313        C  0.28666227  0.01503399  0.61244220     0.27400
C314        C  0.33235765  0.01611654  0.61248023    -0.25200
N315        N  0.35882812  0.93456752  0.65594096    -0.82600
H316        H  0.27156212  0.94007904  0.65280072     0.13200
C317        C  0.21627233  0.98821294  0.62858072     0.02600
N318        N  0.26251365  0.04150965  0.59736228    -0.81100
H319        H  0.34938068  0.03734368  0.60121291     0.18000
C320        C  0.19536640  0.02797666  0.63253622    -0.26000
C321        C  0.14976733  0.03136872  0.63239423     0.36100
C322        C  0.12415800  0.99354820  0.62881990    -0.20000
C323        C  0.14538486  0.95334698  0.62565593    -0.25200
C324        C  0.19111415  0.95034802  0.62533837     0.27400
H325        H  0.21494588  0.05685066  0.63533913     0.13200
N326        N  0.12979227  0.07315045  0.63589642    -0.82500
H327        H  0.12629903  0.92411578  0.62301018     0.18000
N328        N  0.21205297  0.90920333  0.62139806    -0.81100
H329        H  0.15321826  0.09653163  0.64000285     0.33700
H330        H  0.11662451  0.08318601  0.62102144     0.38200
H331        H  0.18889077  0.88447684  0.61948123     0.33600
H332        H  0.22878402  0.91161359  0.60661044     0.30300
H333        H  0.28362358  0.05996778  0.58767596     0.33600
H334        H  0.24577695  0.02052270  0.58686323     0.30300
H335        H  0.37560334  0.95529597  0.66654212     0.38200
H336        H  0.33776722  0.91589030  0.66556157     0.33700
C337        C  0.50576615  0.51711046  0.44139126    -0.20100
C338        C  0.48604374  0.55149926  0.45317568     0.36100
C339        C  0.48424526  0.54923391  0.47597470    -0.26000
C340        C  0.50240364  0.51400575  0.48726297     0.02600
C341        C  0.52276706  0.48010153  0.47562174     0.27400
C342        C  0.52382129  0.48177321  0.45278496    -0.25200
N343        N  0.46642067  0.58774934  0.44205382    -0.82600
H344        H  0.46824138  0.57495064  0.48504402     0.13200
C345        C  0.49865891  0.51264690  0.51127600     0.02600
N346        N  0.54235186  0.44424602  0.48706269    -0.81100
H347        H  0.53920316  0.45551965  0.44384016     0.18000
C348        C  0.47696660  0.47754562  0.52110136    -0.26000
C349        C  0.47151729  0.47564881  0.54377792     0.36100
C350        C  0.48813832  0.50972499  0.55683155    -0.20000
C351        C  0.50946086  0.54504352  0.54691972    -0.25200
C352        C  0.51528167  0.54665316  0.52428169     0.27400
H353        H  0.46369566  0.45185026  0.51096598     0.13200
N354        N  0.44860234  0.43968740  0.55350625    -0.82500
H355        H  0.52264642  0.57097748  0.55692983     0.18000
N356        N  0.53846453  0.58233403  0.51444846    -0.81100
H357        H  0.43890709  0.41728803  0.54161497     0.33700
H358        H  0.42005373  0.45198047  0.56048411     0.38200
H359        H  0.54847061  0.60469354  0.52628703     0.33600
H360        H  0.56681834  0.56972037  0.50741533     0.30300
H361        H  0.55579544  0.42192172  0.47609770     0.33600
H362        H  0.56823427  0.45667190  0.49624591     0.30300
H363        H  0.49168485  0.60684627  0.43575687     0.38200
H364        H  0.44973973  0.60772716  0.45304291     0.33700
C365        C  0.49330700  0.99324603  0.44085731    -0.20100
C366        C  0.46919894  0.96141602  0.45237200     0.36100
C367        C  0.46756984  0.96320527  0.47524445    -0.26000
C368        C  0.48961487  0.99590830  0.48674356     0.02600
C369        C  0.51451932  0.02705978  0.47536649     0.27400
C370        C  0.51554140  0.02580662  0.45250384    -0.25200
N371        N  0.44608629  0.92778345  0.44085601    -0.82600
H372        H  0.44905732  0.93902134  0.48419724     0.13200
C373        C  0.48800519  0.99580993  0.51079334     0.02600
N374        N  0.54014701  0.05857637  0.48707692    -0.81100
H375        H  0.53469041  0.04976123  0.44373718     0.18000
C376        C  0.51572063  0.96768057  0.52219617    -0.26000
C377        C  0.51575874  0.96670392  0.54506494     0.36100
C378        C  0.48754275  0.99465037  0.55668306    -0.20000
C379        C  0.45956258  0.02262165  0.54520855    -0.25200
C380        C  0.45898769  0.02296620  0.52230267     0.27400
H381        H  0.53762546  0.94667873  0.51317059     0.13200
N382        N  0.54493833  0.93811716  0.55652003    -0.82500
H383        H  0.43752080  0.04360552  0.55415860     0.18000
N384        N  0.42803923  0.04944554  0.51072533    -0.81100
H385        H  0.56319776  0.91950198  0.54555841     0.33700
H386        H  0.56713584  0.95754248  0.56506313     0.38200
H387        H  0.40817998  0.06644205  0.52164642     0.33600
H388        H  0.44519782  0.07291146  0.50188534     0.30300
H389        H  0.55779131  0.07812825  0.47626783     0.33600
H390        H  0.51891944  0.07933645  0.49537137     0.30300
H391        H  0.42149047  0.94277026  0.43176504     0.38200
H392        H  0.43054247  0.90673062  0.45177488     0.33700
C393        C  0.99113200  0.51368307  0.55733980    -0.20100
C394        C  0.97995996  0.47776546  0.54400816     0.36100
C395        C  0.98551845  0.48083132  0.52133809    -0.26000
C396        C  0.00165411  0.51895867  0.51165111     0.02600
C397        C  0.01279350  0.55480536  0.52485564     0.27400
C398        C  0.00727447  0.55186502  0.54752436    -0.25200
N399        N  0.96233934  0.43861137  0.55339420    -0.82600
H400        H  0.97645423  0.45357746  0.51106553     0.13200
C401        C  0.00542686  0.52106694  0.48757701     0.02600
N402        N  0.03002747  0.59386163  0.51519090    -0.81100
H403        H  0.01633634  0.57939282  0.55760323     0.18000
C404        C  0.98172355  0.55268762  0.47609247    -0.26000
C405        C  0.98198812  0.55375817  0.45320337     0.36100
C406        C  0.00650087  0.52247407  0.44162808    -0.20000
C407        C  0.03074377  0.49130938  0.45315289    -0.25200
C408        C  0.03084348  0.49058174  0.47601963     0.27400
H409        H  0.96197435  0.57583884  0.48503866     0.13200
N410        N  0.95637674  0.58552135  0.44171287    -0.82500
H411        H  0.04995945  0.46763066  0.44425736     0.18000
N412        N  0.05663258  0.45907933  0.48758745    -0.81100
H413        H  0.94046569  0.60622680  0.45266102     0.33700
H414        H  0.93201748  0.56880238  0.43322505     0.38200
H415        H  0.07337706  0.43896080  0.47669202     0.33600
H416        H  0.08029141  0.47612807  0.49641042     0.30300
H417        H  0.03644384  0.61728101  0.52713788     0.33600
H418        H  0.05997787  0.58601192  0.50807244     0.30300
H419        H  0.93194424  0.44636952  0.56005522     0.38200
H420        H  0.95661968  0.41518721  0.54135883     0.33700
C421        C  0.87259502  0.51967510  0.37536164    -0.20100
C422        C  0.84796763  0.55266412  0.36508472     0.36100
C423        C  0.80226256  0.55124136  0.36626102    -0.26000
C424        C  0.78074138  0.51768350  0.37747496     0.02600
C425        C  0.80530072  0.48501355  0.38791836     0.27400
C426        C  0.85093498  0.48616868  0.38659992    -0.25200
N427        N  0.86925146  0.58683207  0.35308194    -0.82600
H428        H  0.78321173  0.57593517  0.35800105     0.13200
C429        C  0.73243684  0.51645826  0.37746995     0.02600
N430        N  0.78377776  0.45100290  0.39992857    -0.81100
H431        H  0.86973408  0.46106146  0.39468855     0.18000
C432        C  0.71101690  0.47939917  0.36944616    -0.26000
C433        C  0.66533848  0.47754560  0.36829276     0.36100
C434        C  0.64055728  0.51391559  0.37512762    -0.20000
C435        C  0.66219212  0.55087649  0.38327622    -0.25200
C436        C  0.70779777  0.55231706  0.38476565     0.27400
H437        H  0.73013921  0.45206240  0.36367850     0.13200
N438        N  0.64430079  0.43918237  0.35989301    -0.82500
H439        H  0.64342288  0.57857068  0.38889321     0.18000
N440        N  0.72921548  0.58983815  0.39385192    -0.81100
H441        H  0.66726612  0.41514673  0.35614349     0.33700
H442        H  0.62927146  0.44770826  0.34522463     0.38200
H443        H  0.70641088  0.61343531  0.39840932     0.33600
H444        H  0.74489431  0.57990451  0.40812834     0.30300
H445        H  0.80655021  0.42940231  0.40654705     0.33600
H446        H  0.76766854  0.46552638  0.41305694     0.30300
H447        H  0.88480117  0.57250203  0.33972412     0.38200
H448        H  0.84637528  0.60865637  0.34675576     0.33700
C449        C  0.14042466  0.51318181  0.37561090    -0.20100
C450        C  0.16454625  0.47887576  0.36605804     0.36100
C451        C  0.21023988  0.48000500  0.36695734    -0.26000
C452        C  0.23217252  0.51390890  0.37763564     0.02600
C453        C  0.20812691  0.54768957  0.38750101     0.27400
C454        C  0.16252905  0.54728744  0.38610369    -0.25200
N455        N  0.14288712  0.44391224  0.35481309    -0.82600
H456        H  0.22894559  0.45446599  0.35914581     0.13200
C457        C  0.28040237  0.51454667  0.37757198     0.02600
N458        N  0.23015093  0.58208259  0.39899736    -0.81100
H459        H  0.14408665  0.57336426  0.39362178     0.18000
C460        C  0.30194471  0.55093085  0.36896137    -0.26000
C461        C  0.34758191  0.55313871  0.36839349     0.36100
C462        C  0.37227505  0.51731542  0.37601420    -0.20000
C463        C  0.35048876  0.48069906  0.38448069    -0.25200
C464        C  0.30482668  0.47914188  0.38556658     0.27400
H465        H  0.28292097  0.57780913  0.36260799     0.13200
N466        N  0.36858442  0.59115057  0.35957678    -0.82500
H467        H  0.36916190  0.45334333  0.39056815     0.18000
N468        N  0.28316464  0.44193754  0.39484310    -0.81100
H469        H  0.34560530  0.61244239  0.35289883     0.33700
H470        H  0.38273856  0.60793942  0.37259733     0.38200
H471        H  0.30586412  0.41861225  0.39986230     0.33600
H472        H  0.26685382  0.45239221  0.40885010     0.30300
H473        H  0.20772687  0.60451825  0.40520174     0.33600
H474        H  0.24585089  0.56812654  0.41239984     0.30300
H475        H  0.12791870  0.42433537  0.36657032     0.38200
H476        H  0.16557951  0.42390006  0.34698751     0.33700
C477        C  0.00665406  0.01239383  0.44490084    -0.20100
C478        C  0.99146891  0.04854033  0.45703749     0.36100
C479        C  0.99091744  0.04619933  0.47992778    -0.26000
C480        C  0.00655499  0.00931630  0.49095652     0.02600
C481        C  0.02369565  0.97423384  0.47888112     0.27400
C482        C  0.02302781  0.97592306  0.45606572    -0.25200
N483        N  0.97534849  0.08683085  0.44624029    -0.82600
H484        H  0.97763863  0.07307381  0.48924352     0.13200
C485        C  0.00329398  0.00711207  0.51508974     0.02600
N486        N  0.04170011  0.93698302  0.48985683    -0.81100
H487        H  0.03561539  0.94847039  0.44693309     0.18000
C488        C  0.98188633  0.97156091  0.52472134    -0.26000
C489        C  0.97753383  0.96822810  0.54742913     0.36100
C490        C  0.99425526  0.00173241  0.56084330    -0.20000
C491        C  0.01538411  0.03747665  0.55115702    -0.25200
C492        C  0.02067272  0.04019156  0.52846672     0.27400
H493        H  0.96806694  0.94644545  0.51441071     0.13200
N494        N  0.95566524  0.93127745  0.55680768    -0.82500
H495        H  0.02888208  0.06290830  0.56137711     0.18000
N496        N  0.04423157  0.07599477  0.51898175    -0.81100
H497        H  0.94622746  0.90922799  0.54469664     0.33700
H498        H  0.92700359  0.94261131  0.56401233     0.38200
H499        H  0.05489889  0.09753034  0.53105376     0.33600
H500        H  0.07220024  0.06328577  0.51161176     0.30300
H501        H  0.05269804  0.91388158  0.47861473     0.33600
H502        H  0.06907967  0.94752348  0.49852685     0.30300
H503        H  0.00204645  0.10234855  0.43902282     0.38200
H504        H  0.96278949  0.10896488  0.45755622     0.33700
C505        C  0.63571686  0.98914802  0.37952386    -0.20100
C506        C  0.66136044  0.95474904  0.37117288     0.36100
C507        C  0.70700647  0.95669767  0.37320083    -0.26000
C508        C  0.72751669  0.99203435  0.38351790     0.02600
C509        C  0.70179843  0.02536598  0.39270220     0.27400
C510        C  0.65629152  0.02382818  0.39038587    -0.25200
N511        N  0.64124286  0.91869999  0.36009016    -0.82600
H512        H  0.72681317  0.93123732  0.36603951     0.13200
C513        C  0.77590789  0.99514947  0.38330612     0.02600
N514        N  0.72207355  0.06067448  0.40430535    -0.81100
H515        H  0.63671990  0.04981352  0.39723673     0.18000
C516        C  0.79565458  0.03226766  0.37427873    -0.26000
C517        C  0.84122843  0.03593011  0.37268559     0.36100
C518        C  0.86781238  0.00149384  0.38027171    -0.20000
C519        C  0.84787814  0.96442316  0.38939458    -0.25200
C520        C  0.80232148  0.96103290  0.39114291     0.27400
H521        H  0.77526866  0.05816389  0.36796590     0.13200
N522        N  0.86032755  0.07406659  0.36298013    -0.82500
H523        H  0.86795253  0.93808016  0.39547733     0.18000
N524        N  0.78278855  0.92324296  0.40097557    -0.81100
H525        H  0.83621768  0.09659335  0.35872456     0.33700
H526        H  0.87524158  0.06442619  0.34845254     0.38200
H527        H  0.80672918  0.90103551  0.40581289     0.33600
H528        H  0.76688178  0.93343158  0.41514809     0.30300
H529        H  0.69861209  0.08259632  0.40999793     0.33600
H530        H  0.73727559  0.04752039  0.41804499     0.30300
H531        H  0.62709121  0.93075448  0.34582262     0.38200
H532        H  0.66469171  0.89595166  0.35526121     0.33700
C533        C  0.13642129  0.00569834  0.37650404    -0.20100
C534        C  0.16116448  0.98096500  0.39145679     0.36100
C535        C  0.20687289  0.98176876  0.39011359    -0.26000
C536        C  0.22803111  0.00589510  0.37389380     0.02600
C537        C  0.20345290  0.03010405  0.35877855     0.27400
C538        C  0.15776763  0.03032997  0.36046373    -0.25200
N539        N  0.13996783  0.95626315  0.40832427    -0.82600
H540        H  0.22617152  0.96318123  0.40160491     0.13200
C541        C  0.27606540  0.00476643  0.37276794     0.02600
N542        N  0.22490633  0.05309298  0.34140320    -0.81100
H543        H  0.13864395  0.04883594  0.34886716     0.18000
C544        C  0.29641634  0.97059543  0.36159516    -0.26000
C545        C  0.34210868  0.96766910  0.36063519     0.36100
C546        C  0.36774225  0.99974140  0.37109508    -0.20000
C547        C  0.34707229  0.03410212  0.38214449    -0.25200
C548        C  0.30142607  0.03665331  0.38330249     0.27400
H549        H  0.27648990  0.94611271  0.35366464     0.13200
N550        N  0.36245048  0.93252723  0.34896718    -0.82500
H551        H  0.36662319  0.05839294  0.39043973     0.18000
N552        N  0.28073920  0.07047945  0.39578192    -0.81100
H553        H  0.33895543  0.91158449  0.34244881     0.33700
H554        H  0.37921935  0.94606697  0.33575264     0.38200
H555        H  0.30410021  0.09062385  0.40302263     0.33600
H556        H  0.26306220  0.09009946  0.38505832     0.30300
H557        H  0.20200402  0.06831649  0.33134780     0.33600
H558        H  0.24371244  0.07790577  0.34827288     0.30300
H559        H  0.12422015  0.92992987  0.40092737     0.38200
H560        H  0.16300971  0.94274029  0.41887866     0.33700
C561        C  0.49263506  0.49441832  0.80609988    -0.20100
C562        C  0.52805392  0.47982647  0.79322807     0.36100
C563        C  0.52563718  0.48330168  0.77042620    -0.26000
C564        C  0.48834382  0.50003594  0.76030770     0.02600
C565        C  0.45260817  0.51345556  0.77296900     0.27400
C566        C  0.45504601  0.51045204  0.79573313    -0.25200
N567        N  0.56599566  0.46103827  0.80324520    -0.82600
H568        H  0.55267804  0.47245582  0.76044258     0.13200
C569        C  0.48664986  0.50255621  0.73632986     0.02600
N570        N  0.41416473  0.53038553  0.76260436    -0.81100
H571        H  0.42774878  0.52165415  0.80542338     0.18000
C572        C  0.46112556  0.47237095  0.72494234    -0.26000
C573        C  0.45855979  0.47357480  0.70213358     0.36100
C574        C  0.48236869  0.50549841  0.69057903    -0.20000
C575        C  0.50715778  0.53634136  0.70208997    -0.25200
C576        C  0.50959633  0.53510429  0.72492771     0.27400
H577        H  0.44314640  0.44785109  0.73393713     0.13200
N578        N  0.43143407  0.44294602  0.69070031    -0.82500
H579        H  0.52529168  0.56092885  0.69322257     0.18000
N580        N  0.53533807  0.56651878  0.73661226    -0.81100
H581        H  0.41633673  0.42157144  0.70161725     0.33700
H582        H  0.40649877  0.46056853  0.68314811     0.38200
H583        H  0.55043567  0.58809229  0.72579642     0.33600
H584        H  0.51407788  0.58510622  0.74613709     0.30300
H585        H  0.39061467  0.53855055  0.77421874     0.33600
H586        H  0.42286003  0.55935366  0.75475669     0.30300
H587        H  0.55626314  0.43207391  0.81078729     0.38200
H588        H  0.58904318  0.45241296  0.79146255     0.33700
C589        C  0.49877440  0.99910476  0.80670927    -0.20100
C590        C  0.46133794  0.98801758  0.79441420     0.36100
C591        C  0.46379621  0.98757586  0.77160783    -0.26000
C592        C  0.50302431  0.99630121  0.76072570     0.02600
C593        C  0.54061374  0.00666078  0.77290553     0.27400
C594        C  0.53798381  0.00834781  0.79573651    -0.25200
N595        N  0.42111226  0.97652994  0.80500534    -0.82600
H596        H  0.43487192  0.98005408  0.76219687     0.13200
C597        C  0.50361868  0.99501179  0.73655175     0.02600
N598        N  0.58134182  0.01499838  0.76206891    -0.81100
H599        H  0.56686081  0.01672421  0.80499451     0.18000
C600        C  0.51815459  0.03157314  0.72491036    -0.26000
C601        C  0.51691688  0.03248977  0.70204557     0.36100
C602        C  0.49895712  0.99674172  0.69062328    -0.20000
C603        C  0.48538468  0.95977460  0.70229354    -0.25200
C604        C  0.48806836  0.95829621  0.72509148     0.27400
H605        H  0.53024262  0.05967556  0.73372299     0.13200
N606        N  0.53439674  0.06926917  0.69045172    -0.82500
H607        H  0.47233423  0.93193634  0.69361006     0.18000
N608        N  0.47508175  0.91967705  0.73667335    -0.81100
H609        H  0.54615817  0.09272879  0.70131113     0.33700
H610        H  0.56133553  0.05830297  0.68156460     0.38200
H611        H  0.46423309  0.89569885  0.72585578     0.33600
H612        H  0.50278007  0.90716234  0.74436013     0.30300
H613        H  0.60574737  0.02240052  0.77337007     0.33600
H614        H  0.59081088  0.98621384  0.75429860     0.30300
H615        H  0.42629472  0.94722128  0.81326979     0.38200
H616        H  0.39664728  0.97034459  0.79355189     0.33700
C617        C  0.49430812  0.86513910  0.87201876    -0.20100
C618        C  0.45984155  0.84191564  0.86199010     0.36100
C619        C  0.46059153  0.79616082  0.86197868    -0.26000
C620        C  0.49489621  0.77329310  0.87175783     0.02600
C621        C  0.52884983  0.79626090  0.88206048     0.27400
C622        C  0.52854143  0.84197343  0.88183464    -0.25200
N623        N  0.42464032  0.86471061  0.85155885    -0.82600
H624        H  0.43458553  0.77815177  0.85410836     0.13200
C625        C  0.49489536  0.72515312  0.87117251     0.02600
N626        N  0.56308842  0.77295550  0.89299120    -0.81100
H627        H  0.55469415  0.85959028  0.88979033     0.18000
C628        C  0.52823436  0.70336052  0.85997503    -0.26000
C629        C  0.52973240  0.65762498  0.85935800     0.36100
C630        C  0.49714621  0.63341743  0.87024101    -0.20000
C631        C  0.46350940  0.65545221  0.88118177    -0.25200
C632        C  0.46229197  0.70109199  0.88193560     0.27400
H633        H  0.55302141  0.72221013  0.85162403     0.13200
N634        N  0.56378486  0.63582843  0.84752604    -0.82500
H635        H  0.43864969  0.63696616  0.88967530     0.18000
N636        N  0.42859390  0.72315527  0.89390022    -0.81100
H637        H  0.58522741  0.65845269  0.84062274     0.33700
H638        H  0.54923122  0.61914444  0.83457536     0.38200
H639        H  0.40710216  0.70069014  0.90088860     0.33600
H640        H  0.44347476  0.73973399  0.90678913     0.30300
H641        H  0.58555522  0.79464395  0.89981128     0.33600
H642        H  0.54895758  0.75597183  0.90596592     0.30300
H643        H  0.43765684  0.88131973  0.83818933     0.38200
H644        H  0.40169070  0.84275519  0.84535512     0.33700
C645        C  0.49812275  0.13323017  0.87592986    -0.20100
C646        C  0.52958914  0.15794516  0.86456301     0.36100
C647        C  0.52843130  0.20359017  0.86586236    -0.26000
C648        C  0.49671162  0.22500865  0.87835433     0.02600
C649        C  0.46546614  0.20034777  0.88986870     0.27400
C650        C  0.46622347  0.15467944  0.88834838    -0.25200
N651        N  0.56193158  0.13672620  0.85134694    -0.82600
H652        H  0.55195423  0.22269239  0.85677953     0.13200
C653        C  0.49604412  0.27333127  0.87860678     0.02600
N654        N  0.43341923  0.22178140  0.90317731    -0.81100
H655        H  0.44227276  0.13567915  0.89720642     0.18000
C656        C  0.45869916  0.29524155  0.87135902    -0.26000
C657        C  0.45764757  0.34092153  0.87002541     0.36100
C658        C  0.49473961  0.36530748  0.87641336    -0.20000
C659        C  0.53203327  0.34315529  0.88373903    -0.25200
C660        C  0.53300602  0.29748633  0.88497954     0.27400
H661        H  0.43064623  0.27647518  0.86612885     0.13200
N662        N  0.41947827  0.36234555  0.86166882    -0.82500
H663        H  0.56049135  0.36154221  0.88873169     0.18000
N664        N  0.57132040  0.27547170  0.89274536    -0.81100
H665        H  0.39499431  0.33970571  0.85812545     0.33700
H666        H  0.42806311  0.37688155  0.84687156     0.38200
H667        H  0.59578409  0.29789715  0.89664683     0.33600
H668        H  0.56299619  0.25955801  0.90721996     0.30300
H669        H  0.41280985  0.19895861  0.91053580     0.33600
H670        H  0.44995485  0.23768747  0.91576688     0.30300
H671        H  0.54567409  0.12107558  0.83856910     0.38200
H672        H  0.58275111  0.15961891  0.84421481     0.33700
C673        C  0.98861623  0.48717830  0.80747621    -0.20100
C674        C  0.94921801  0.47925765  0.79613408     0.36100
C675        C  0.94789376  0.48498777  0.77344071    -0.26000
C676        C  0.98527233  0.49693139  0.76171077     0.02600
C677        C  0.02478019  0.50398839  0.77289196     0.27400
C678        C  0.02592605  0.49944352  0.79562960    -0.25200
N679        N  0.91088762  0.46478190  0.80752537    -0.82600
H680        H  0.91763046  0.47952752  0.76475357     0.13200
C681        C  0.98292296  0.50048718  0.73763185     0.02600
N682        N  0.06369315  0.51523268  0.76107961    -0.81100
H683        H  0.05628134  0.50553451  0.80411810     0.18000
C684        C  0.99509928  0.53954457  0.72744497    -0.26000
C685        C  0.99526021  0.54340897  0.70462340     0.36100
C686        C  0.98184388  0.50756488  0.69170523    -0.20000
C687        C  0.96881610  0.46883755  0.70206662    -0.25200
C688        C  0.96955590  0.46479831  0.72482174     0.27400
H689        H  0.00517360  0.56693621  0.73738608     0.13200
N690        N  0.00986248  0.58322793  0.69465566    -0.82500
H691        H  0.95836687  0.44126510  0.69236432     0.18000
N692        N  0.95747928  0.42432238  0.73497118    -0.81100
H693        H  0.01751970  0.60649853  0.70649875     0.33700
H694        H  0.03891628  0.57641642  0.68643062     0.38200
H695        H  0.94815517  0.40138699  0.72327345     0.33600
H696        H  0.98520900  0.41186694  0.74266426     0.30300
H697        H  0.08993013  0.51954339  0.77172803     0.33600
H698        H  0.07160863  0.48879838  0.75109125     0.30300
H699        H  0.91743972  0.43368186  0.81365779     0.38200
H700        H  0.88465269  0.46128314  0.79680118     0.33700
C701        C  0.00462381  0.98093003  0.81063980    -0.20100
C702        C  0.04299204  0.98663439  0.79804879     0.36100
C703        C  0.03967853  0.99026658  0.77529345    -0.26000
C704        C  0.99913351  0.98846070  0.76482756     0.02600
C705        C  0.96091381  0.98327045  0.77728512     0.27400
C706        C  0.96408153  0.97916908  0.79995861    -0.25200
N707        N  0.08512803  0.98906276  0.80823438    -0.82600
H708        H  0.06897740  0.99388681  0.76559125     0.13200
C709        C  0.99707940  0.99061403  0.74073718     0.02600
N710        N  0.91895031  0.98269158  0.76683986    -0.81100
H711        H  0.93441787  0.97521623  0.80932785     0.18000
C712        C  0.97680614  0.95653790  0.72938558    -0.26000
C713        C  0.97282505  0.95752334  0.70664397     0.36100
C714        C  0.99078078  0.99282119  0.69490817    -0.20000
C715        C  0.01135149  0.02685631  0.70629379    -0.25200
C716        C  0.01452071  0.02622044  0.72911644     0.27400
H717        H  0.96364976  0.92915397  0.73839219     0.13200
N718        N  0.94993968  0.92320372  0.69552369    -0.82500
H719        H  0.02528053  0.05393359  0.69734885     0.18000
N720        N  0.03505715  0.06162578  0.74053236    -0.81100
H721        H  0.93908217  0.89963065  0.70655976     0.33700
H722        H  0.92203084  0.93687594  0.68853958     0.38200
H723        H  0.04642482  0.08510337  0.72957026     0.33600
H724        H  0.01123410  0.07676379  0.75006925     0.30300
H725        H  0.89407019  0.97840328  0.77828502     0.33600
H726        H  0.91408601  0.01330930  0.75978468     0.30300
H727        H  0.09226036  0.95811720  0.81438862     0.38200
H728        H  0.10933488  0.99599829  0.79674655     0.33700
C729        C  0.01051996  0.84629069  0.87824831    -0.20100
C730        C  0.04566555  0.82198769  0.88690523     0.36100
C731        C  0.04500667  0.77616877  0.88542172    -0.26000
C732        C  0.00984384  0.75432508  0.87570457     0.02600
C733        C  0.97517223  0.77847131  0.86681581     0.27400
C734        C  0.97569471  0.82408780  0.86831477    -0.25200
N735        N  0.08128249  0.84366951  0.89759697    -0.82600
H736        H  0.07145476  0.75729816  0.89232291     0.13200
C737        C  0.00841673  0.70605154  0.87578536     0.02600
N738        N  0.93962627  0.75642843  0.85623572    -0.81100
H739        H  0.94894466  0.84245665  0.86137494     0.18000
C740        C  0.97634706  0.68502049  0.88820673    -0.26000
C741        C  0.97268299  0.63937770  0.88835212     0.36100
C742        C  0.00242772  0.61418351  0.87606020    -0.20000
C743        C  0.03486462  0.63542656  0.86381106    -0.25200
C744        C  0.03778834  0.68114780  0.86332455     0.27400
H745        H  0.95388036  0.70447231  0.89774284     0.13200
N746        N  0.93976683  0.61873084  0.90146418    -0.82500
H747        H  0.05747346  0.61627441  0.85421198     0.18000
N748        N  0.06999574  0.70241885  0.85003360    -0.81100
H749        H  0.92339362  0.64179313  0.91095689     0.33700
H750        H  0.91639792  0.60583435  0.89088687     0.38200
H751        H  0.08907756  0.67942383  0.84186366     0.33600
H752        H  0.05347413  0.72008957  0.83804980     0.30300
H753        H  0.91658862  0.77884740  0.85061513     0.33600
H754        H  0.95219645  0.74076418  0.84247972     0.30300
H755        H  0.06885117  0.85860390  0.91159572     0.38200
H756        H  0.10447013  0.82108864  0.90287045     0.33700
C757        C  0.99458372  0.34574069  0.87200533    -0.20100
C758        C  0.96637343  0.32147239  0.88556651     0.36100
C759        C  0.96728709  0.27574019  0.88465622    -0.26000
C760        C  0.99573480  0.25400874  0.87051615     0.02600
C761        C  0.02330408  0.27806003  0.85665448     0.27400
C762        C  0.02268679  0.32380926  0.85765356    -0.25200
N763        N  0.93786045  0.34326285  0.90062190    -0.82600
H764        H  0.94638125  0.25684740  0.89531356     0.13200
C765        C  0.99789102  0.20598587  0.87136886     0.02600
N766        N  0.05146191  0.25593310  0.84155260    -0.81100
H767        H  0.04402387  0.34247485  0.84711261     0.18000
C768        C  0.97059856  0.18111506  0.85792600    -0.26000
C769        C  0.97098026  0.13532011  0.85900610     0.36100
C770        C  0.99915605  0.11442440  0.87389734    -0.20000
C771        C  0.02675367  0.13947132  0.88711264    -0.25200
C772        C  0.02617978  0.18513715  0.88610674     0.27400
H773        H  0.94900798  0.19752347  0.84662846     0.13200
N774        N  0.94350934  0.11000732  0.84485227    -0.82500
H775        H  0.04832014  0.12330477  0.89851163     0.18000
N776        N  0.05348767  0.21052816  0.90029728    -0.81100
H777        H  0.92482080  0.13039462  0.83491664     0.33700
H778        H  0.96377799  0.09214681  0.83447482     0.38200
H779        H  0.07166303  0.19021586  0.91050108     0.33600
H780        H  0.07592360  0.22733089  0.89061253     0.30300
H781        H  0.06907356  0.27841830  0.83226141     0.33600
H782        H  0.07432877  0.23826696  0.85055538     0.30300
H783        H  0.95737387  0.35933975  0.91204692     0.38200
H784        H  0.91915639  0.32065057  0.90929449     0.33700
C785        C  0.50327294  0.51106067  0.19087057    -0.20100
C786        C  0.54063309  0.49820089  0.20285212     0.36100
C787        C  0.53894870  0.49772072  0.22573599    -0.26000
C788        C  0.50129869  0.51056635  0.23688822     0.02600
C789        C  0.46411424  0.52336934  0.22512450     0.27400
C790        C  0.46538514  0.52332079  0.20225239    -0.25200
N791        N  0.57987486  0.48491216  0.19190401    -0.82600
H792        H  0.56740389  0.48799585  0.23499180     0.13200
C793        C  0.50160470  0.51135192  0.26097187     0.02600
N794        N  0.42526427  0.53633808  0.23650429    -0.81100
H795        H  0.43667834  0.53331587  0.19328288     0.18000
C796        C  0.50166663  0.55152786  0.27171704    -0.26000
C797        C  0.50212404  0.55392010  0.29457189     0.36100
C798        C  0.50332228  0.51490843  0.30700014    -0.20000
C799        C  0.50304400  0.47465034  0.29597948    -0.25200
C800        C  0.50193391  0.47253003  0.27312356     0.27400
H801        H  0.50118277  0.58120069  0.26215097     0.13200
N802        N  0.50131038  0.59585400  0.30500843    -0.82500
H803        H  0.50360389  0.44456274  0.30518712     0.18000
N804        N  0.50100415  0.43115614  0.26215744    -0.81100
H805        H  0.50287454  0.62088641  0.29348842     0.33700
H806        H  0.47103198  0.59895266  0.31269037     0.38200
H807        H  0.50153131  0.40564053  0.27342849     0.33600
H808        H  0.47126139  0.42889694  0.25391061     0.30300
H809        H  0.40081816  0.54509048  0.22548469     0.33600
H810        H  0.41371280  0.50917908  0.24502384     0.30300
H811        H  0.59409851  0.51287237  0.18525342     0.38200
H812        H  0.60253112  0.47272146  0.20306125     0.33700
C813        C  0.50007863  0.51063516  0.94025488    -0.20100
C814        C  0.53702813  0.52669563  0.95152490     0.36100
C815        C  0.53601090  0.52955497  0.97438647    -0.26000
C816        C  0.49905350  0.51674757  0.98625997     0.02600
C817        C  0.46195866  0.50150559  0.97504102     0.27400
C818        C  0.46274122  0.49898546  0.95220827    -0.25200
N819        N  0.57527624  0.54039574  0.93982432    -0.82600
H820        H  0.56424043  0.54182573  0.98305313     0.13200
C821        C  0.50017489  0.51787027  0.01046626     0.02600
N822        N  0.42396907  0.48769001  0.98691464    -0.81100
H823        H  0.43425656  0.48677236  0.94374640     0.18000
C824        C  0.46831769  0.54138500  0.02194251    -0.26000
C825        C  0.46738015  0.54144852  0.04485596     0.36100
C826        C  0.49924897  0.51776687  0.05648309    -0.20000
C827        C  0.53174346  0.49529208  0.04498823    -0.25200
C828        C  0.53217582  0.49454115  0.02212667     0.27400
H829        H  0.44409561  0.55971071  0.01295269     0.13200
N830        N  0.43463066  0.56588450  0.05631443    -0.82500
H831        H  0.55616563  0.47708848  0.05390568     0.18000
N832        N  0.56435908  0.46932089  0.01069349    -0.81100
H833        H  0.41355617  0.58121245  0.04534514     0.33700
H834        H  0.45046297  0.59065791  0.06492952     0.38200
H835        H  0.58556014  0.45415943  0.02165067     0.33600
H836        H  0.54802031  0.44441796  0.00241049     0.30300
H837        H  0.39941053  0.47754769  0.97624788     0.33600
H838        H  0.43269106  0.46042583  0.99613959     0.30300
H839        H  0.56681544  0.56779341  0.93064823     0.38200
H840        H  0.59972107  0.55039670  0.95060386     0.33700
C841        C  0.50834681  0.99498833  0.30636764    -0.20100
C842        C  0.50874102  0.95640188  0.29360797     0.36100
C843        C  0.50727818  0.95949748  0.27074594    -0.26000
C844        C  0.50628645  0.00004020  0.26030165     0.02600
C845        C  0.50735493  0.03843196  0.27280636     0.27400
C846        C  0.50806261  0.03556153  0.29564190    -0.25200
N847        N  0.51048940  0.91421163  0.30373610    -0.82600
H848        H  0.50691216  0.93011759  0.26095555     0.13200
C849        C  0.50454210  0.00201935  0.23619061     0.02600
N850        N  0.50783654  0.08020134  0.26220392    -0.81100
H851        H  0.50820821  0.06537290  0.30507478     0.18000
C852        C  0.46773735  0.01984362  0.22601149    -0.26000
C853        C  0.46547054  0.02371506  0.20321129     0.36100
C854        C  0.50081654  0.00905308  0.19032681    -0.20000
C855        C  0.53748110  0.99093251  0.20066087    -0.25200
C856        C  0.53971793  0.98733121  0.22343204     0.27400
H857        H  0.44084300  0.03113018  0.23596892     0.13200
N858        N  0.42776590  0.04306291  0.19323066    -0.82500
H859        H  0.56455863  0.97932784  0.19093185     0.18000
N860        N  0.57771536  0.96919443  0.23369099    -0.81100
H861        H  0.40455644  0.05132754  0.20499987     0.33700
H862        H  0.43770917  0.07226396  0.18598737     0.38200
H863        H  0.60058755  0.95965603  0.22200237     0.33600
H864        H  0.59233224  0.99391146  0.24286704     0.30300
H865        H  0.50850555  0.10532628  0.27369009     0.33600
H866        H  0.53689375  0.08245758  0.25335414     0.30300
H867        H  0.54111063  0.91126546  0.31106398     0.38200
H868        H  0.50868263  0.88948981  0.29205008     0.33700
C869        C  0.50030509  0.01108805  0.05603409    -0.20100
C870        C  0.53603191  0.99468578  0.04389976     0.36100
C871        C  0.53290684  0.99218368  0.02114621    -0.26000
C872        C  0.49543444  0.00623400  0.01023354     0.02600
C873        C  0.45988347  0.02264618  0.02213176     0.27400
C874        C  0.46254275  0.02462843  0.04492679    -0.25200
N875        N  0.57496337  0.97972375  0.05457229    -0.82600
H876        H  0.56001967  0.97949286  0.01176878     0.13200
C877        C  0.49471154  0.00463540  0.98622139     0.02600
N878        N  0.42148338  0.03757728  0.01098797    -0.81100
H879        H  0.43507811  0.03728738  0.05403253     0.18000
C880        C  0.46515500  0.97699241  0.97560254    -0.26000
C881        C  0.46491476  0.97372299  0.95278269     0.36100
C882        C  0.49489634  0.99863982  0.94056032    -0.20000
C883        C  0.52447474  0.02612434  0.95125752    -0.25200
C884        C  0.52426354  0.02984450  0.97399001     0.27400
H885        H  0.44271805  0.95755592  0.98518249     0.13200
N886        N  0.43503885  0.94471856  0.94202351    -0.82500
H887        H  0.54706716  0.04561111  0.94179119     0.18000
N888        N  0.55352733  0.05945951  0.98475664    -0.81100
H889        H  0.41517230  0.92889885  0.95339537     0.33700
H890        H  0.45344817  0.92052554  0.93434740     0.38200
H891        H  0.57317286  0.07558838  0.97340973     0.33600
H892        H  0.53457969  0.08335305  0.99235065     0.30300
H893        H  0.39817027  0.04853427  0.02213726     0.33600
H894        H  0.43037288  0.06452782  0.00156022     0.30300
H895        H  0.59134832  0.00720359  0.06043092     0.38200
H896        H  0.59612266  0.96512843  0.04338972     0.33700
C897        C  0.49513691  0.64701991  0.12341114    -0.20100
C898        C  0.52406616  0.67093661  0.11010291     0.36100
C899        C  0.52261604  0.71657633  0.11044137    -0.26000
C900        C  0.49287594  0.73874846  0.12375132     0.02600
C901        C  0.46338456  0.71493796  0.13676760     0.27400
C902        C  0.46451304  0.66915993  0.13629243    -0.25200
N903        N  0.55429989  0.64878988  0.09603735    -0.82600
H904        H  0.54467502  0.73508076  0.10020234     0.13200
C905        C  0.49347250  0.78697834  0.12389387     0.02600
N906        N  0.43305287  0.73735144  0.15065781    -0.81100
H907        H  0.44226400  0.65069999  0.14644572     0.18000
C908        C  0.45626048  0.80998703  0.11738971    -0.26000
C909        C  0.45625494  0.85574654  0.11651992     0.36100
C910        C  0.49434202  0.87893908  0.12256544    -0.20000
C911        C  0.53157199  0.85556547  0.12897690    -0.25200
C912        C  0.53145141  0.80992051  0.12981707     0.27400
H913        H  0.42738278  0.79205069  0.11256784     0.13200
N914        N  0.41799475  0.87845257  0.10918870    -0.82500
H915        H  0.56081515  0.87295635  0.13371914     0.18000
N916        N  0.56962070  0.78668709  0.13685492    -0.81100
H917        H  0.39272962  0.85654791  0.10585869     0.33700
H918        H  0.42576372  0.89352693  0.09441429     0.38200
H919        H  0.59491454  0.80833664  0.14052103     0.33600
H920        H  0.56175669  0.77063846  0.15135556     0.30300
H921        H  0.41363668  0.71507532  0.15915447     0.33600
H922        H  0.45112057  0.75437335  0.16232667     0.30300
H923        H  0.53609191  0.63161346  0.08445841     0.38200
H924        H  0.57336131  0.67116554  0.08742424     0.33700
C925        C  0.50624997  0.14744200  0.12348665    -0.20100
C926        C  0.47438686  0.17273779  0.13433272     0.36100
C927        C  0.47693083  0.21836223  0.13344287    -0.26000
C928        C  0.51023462  0.23927231  0.12186458     0.02600
C929        C  0.54242161  0.21434537  0.11129188     0.27400
C930        C  0.54033904  0.16859288  0.11236589    -0.25200
N931        N  0.44034647  0.15224623  0.14677890    -0.82600
H932        H  0.45261071  0.23788561  0.14172626     0.13200
C933        C  0.51036223  0.28744432  0.12096207     0.02600
N934        N  0.57665380  0.23561075  0.09932727    -0.81100
H935        H  0.56483563  0.14935713  0.10405403     0.18000
C936        C  0.54236250  0.31073168  0.13234629    -0.26000
C937        C  0.54127501  0.35649258  0.13329225     0.36100
C938        C  0.50763702  0.37925217  0.12240049    -0.20000
C939        C  0.47588182  0.35573874  0.11085811    -0.25200
C940        C  0.47716025  0.31004313  0.10986981     0.27400
H941        H  0.56754705  0.29303041  0.14098567     0.13200
N942        N  0.57342982  0.37977703  0.14575448    -0.82500
H943        H  0.45032157  0.37311923  0.10233696     0.18000
N944        N  0.44494632  0.28635130  0.09765271    -0.81100
H945        H  0.59591121  0.35819394  0.15264085     0.33700
H946        H  0.55735474  0.39490292  0.15872132     0.38200
H947        H  0.42270534  0.30774741  0.09046652     0.33600
H948        H  0.46105652  0.27048870  0.08490797     0.30300
H949        H  0.59777782  0.21261586  0.09252196     0.33600
H950        H  0.56224991  0.25218703  0.08631586     0.30300
H951        H  0.41813976  0.13882412  0.13573812     0.38200
H952        H  0.42286646  0.17546095  0.15565194     0.33700
C953        C  0.02320711  0.49118539  0.19188842    -0.20100
C954        C  0.06136758  0.48418292  0.20443945     0.36100
C955        C  0.05922087  0.48766391  0.22727859    -0.26000
C956        C  0.01987244  0.49743474  0.23779609     0.02600
C957        C  0.98175987  0.50350726  0.22543937     0.27400
C958        C  0.98383524  0.50055592  0.20268210    -0.25200
N959        N  0.10202974  0.47340451  0.19411666    -0.82600
H960        H  0.08833238  0.48277909  0.23696897     0.13200
C961        C  0.01861992  0.50141581  0.26181443     0.02600
N962        N  0.94103015  0.51255068  0.23612391    -0.81100
H963        H  0.95434771  0.50581691  0.19335148     0.18000
C964        C  0.00808483  0.54171842  0.27113316    -0.26000
C965        C  0.00378230  0.54646388  0.29379528     0.36100
C966        C  0.01085434  0.51000522  0.30748688    -0.20000
C967        C  0.02187820  0.46973732  0.29798078    -0.25200
C968        C  0.02567450  0.46505636  0.27530592     0.27400
H969        H  0.00253492  0.56946130  0.26057532     0.13200
N970        N  0.99166151  0.58796982  0.30279039    -0.82500
H971        H  0.02764967  0.44166046  0.30826655     0.18000
N972        N  0.03618239  0.42347055  0.26589639    -0.81100
H973        H  0.98883446  0.61140912  0.29050651     0.33700
H974        H  0.96062348  0.58451583  0.30961602     0.38200
H975        H  0.04063402  0.40008027  0.27806986     0.33600
H976        H  0.00932010  0.41335628  0.25670850     0.30300
H977        H  0.91605535  0.51647782  0.22471446     0.33600
H978        H  0.93288453  0.48524237  0.24546975     0.30300
H979        H  0.09848834  0.44253574  0.18712489     0.38200
H980        H  0.12694079  0.47070301  0.20565609     0.33700
C981        C  0.01715885  0.48247775  0.05777899    -0.20100
C982        C  0.99082764  0.51196182  0.04610470     0.36100
C983        C  0.98947272  0.50952281  0.02327791    -0.26000
C984        C  0.01315542  0.47761782  0.01193174     0.02600
C985        C  0.03940258  0.44801122  0.02370991     0.27400
C986        C  0.04176930  0.45134105  0.04650821    -0.25200
N987        N  0.96612171  0.54464073  0.05746783    -0.82600
H988        H  0.97006062  0.53282124  0.01425727     0.13200
C989        C  0.01062140  0.47610301  0.98773475     0.02600
N990        N  0.06283530  0.41419333  0.01251933    -0.81100
H991        H  0.06177770  0.42864462  0.05560149     0.18000
C992        C  0.04922568  0.47677714  0.97549817    -0.26000
C993        C  0.04849208  0.47538589  0.95262342     0.36100
C994        C  0.00790396  0.47510193  0.94157750    -0.20000
C995        C  0.96925908  0.47454047  0.95395795    -0.25200
C996        C  0.97017561  0.47453527  0.97682982     0.27400
H997        H  0.08025494  0.47839764  0.98388687     0.13200
N998        N  0.08889934  0.47451084  0.94075499    -0.82500
H999        H  0.93796489  0.47393035  0.94579814     0.18000
N1000       N  0.93016989  0.47271805  0.98902176    -0.81100
H1001       H  0.11546800  0.47708441  0.95133982     0.33700
H1002       H  0.09138440  0.44382960  0.93345297     0.38200
H1003       H  0.90326631  0.47204786  0.97857148     0.33600
H1004       H  0.92988026  0.44332344  0.99762225     0.30300
H1005       H  0.08059066  0.39526016  0.02354100     0.33600
H1006       H  0.03983909  0.39351592  0.00535374     0.30300
H1007       H  0.98827680  0.56559723  0.06508344     0.38200
H1008       H  0.94826433  0.56359796  0.04649454     0.33700
C1009       C  0.00290284  0.99517904  0.31061410    -0.20100
C1010       C  0.99538350  0.95534007  0.29951000     0.36100
C1011       C  0.99880638  0.95396278  0.27667846    -0.26000
C1012       C  0.00880361  0.99144043  0.26471094     0.02600
C1013       C  0.01624281  0.03108739  0.27556765     0.27400
C1014       C  0.01314774  0.03262292  0.29838408    -0.25200
N1015       N  0.98372060  0.91656159  0.31129199    -0.82600
H1016       H  0.99281320  0.92370316  0.26808278     0.13200
C1017       C  0.00953854  0.98914666  0.24067534     0.02600
N1018       N  0.02683300  0.06958985  0.26331751    -0.81100
H1019       H  0.01927936  0.06321093  0.30663600     0.18000
C1020       C  0.97354109  0.00461697  0.22903271    -0.26000
C1021       C  0.97281385  0.00350040  0.20616542     0.36100
C1022       C  0.00873492  0.98569660  0.19473446    -0.20000
C1023       C  0.04491577  0.97043471  0.20655808    -0.25200
C1024       C  0.04570177  0.97213543  0.22944127     0.27400
H1025       H  0.94609583  0.01806708  0.23788320     0.13200
N1026       N  0.93621198  0.02136729  0.19459360    -0.82500
H1027       H  0.07268916  0.95712544  0.19792712     0.18000
N1028       N  0.08300954  0.95680779  0.24134088    -0.81100
H1029       H  0.91243761  0.03247822  0.20545880     0.33700
H1030       H  0.94727481  0.04873842  0.18607994     0.38200
H1031       H  0.10681003  0.94507680  0.23066123     0.33600
H1032       H  0.09673947  0.98356354  0.24935676     0.30300
H1033       H  0.03107781  0.09622981  0.27371446     0.33600
H1034       H  0.05687936  0.06424933  0.25572805     0.30300
H1035       H  0.95292173  0.92174010  0.31812244     0.38200
H1036       H  0.98049439  0.89006094  0.30071162     0.33700
C1037       C  0.00543200  0.98803990  0.94459923    -0.20100
C1038       C  0.97911781  0.96075215  0.95757854     0.36100
C1039       C  0.98046240  0.96509087  0.98033484    -0.26000
C1040       C  0.00740650  0.99625168  0.99028833     0.02600
C1041       C  0.03323388  0.02397910  0.97727819     0.27400
C1042       C  0.03241027  0.01918736  0.95453210    -0.25200
N1043       N  0.95203782  0.92808026  0.94763274    -0.82600
H1044       H  0.96103841  0.94354600  0.99041475     0.13200
C1045       C  0.00925544  0.99827447  0.01439004     0.02600
N1046       N  0.05981655  0.05704969  0.98723084    -0.81100
H1047       H  0.05226905  0.04036843  0.94446445     0.18000
C1048       C  0.04912838  0.99120121  0.02494721    -0.26000
C1049       C  0.05197057  0.99046863  0.04779506     0.36100
C1050       C  0.01362294  0.99592529  0.06039326    -0.20000
C1051       C  0.97388436  0.00391302  0.04963017    -0.25200
C1052       C  0.97139350  0.00548777  0.02682496     0.27400
H1053       H  0.07813412  0.98567436  0.01525408     0.13200
N1054       N  0.09346962  0.98323481  0.05804672    -0.82500
H1055       H  0.94442023  0.00895361  0.05902275     0.18000
N1056       N  0.93055710  0.01426381  0.01620481    -0.81100
H1057       H  0.11753169  0.97698444  0.04639304     0.33700
H1058       H  0.10251069  0.01235231  0.06564735     0.38200
H1059       H  0.90573309  0.01862683  0.02767046     0.33600
H1060       H  0.93380011  0.04381481  0.00788778     0.30300
H1061       H  0.07679521  0.07468818  0.97537993     0.33600
H1062       H  0.03892286  0.07907562  0.99495515     0.30300
H1063       H  0.97257468  0.90565008  0.93996162     0.38200
H1064       H  0.93469702  0.91078613  0.95948675     0.33700
C1065       C  0.01537237  0.85306581  0.12340062    -0.20100
C1066       C  0.98408437  0.82904779  0.11143688     0.36100
C1067       C  0.98705315  0.78335172  0.11073104    -0.26000
C1068       C  0.02009655  0.76112681  0.12192544     0.02600
C1069       C  0.05168731  0.78501822  0.13356395     0.27400
C1070       C  0.04927167  0.83073025  0.13397510    -0.25200
N1071       N  0.95025391  0.85096132  0.09950574    -0.82600
H1072       H  0.96319609  0.76481605  0.10157558     0.13200
C1073       C  0.02039626  0.71275197  0.12185583     0.02600
N1074       N  0.08559459  0.76270092  0.14524139    -0.81100
H1075       H  0.07339035  0.84899051  0.14309257     0.18000
C1076       C  0.05646980  0.69038575  0.11338011    -0.26000
C1077       C  0.05789877  0.64455522  0.11323959     0.36100
C1078       C  0.02249600  0.62061044  0.12195633    -0.20000
C1079       C  0.98623715  0.64326356  0.13019029    -0.25200
C1080       C  0.98496190  0.68898068  0.13037915     0.27400
H1081       H  0.08343216  0.70885289  0.10666112     0.13200
N1082       N  0.09482790  0.62244355  0.10399765    -0.82500
H1083       H  0.95903795  0.62524558  0.13696273     0.18000
N1084       N  0.94812178  0.71143718  0.13952046    -0.81100
H1085       H  0.11819247  0.64486065  0.09862935     0.33700
H1086       H  0.08398530  0.60576283  0.09017921     0.38200
H1087       H  0.92471612  0.68924245  0.14503196     0.33600
H1088       H  0.95903866  0.72851676  0.15321241     0.30300
H1089       H  0.10632678  0.78500592  0.15289640     0.33600
H1090       H  0.07079804  0.74453600  0.15761314     0.30300
H1091       H  0.92801931  0.86326398  0.11084834     0.38200
H1092       H  0.93276662  0.82879354  0.08997576     0.33700
C1093       C  0.01775242  0.35174511  0.12770480    -0.20100
C1094       C  0.05220305  0.32545669  0.11980473     0.36100
C1095       C  0.04889834  0.27988704  0.12132981    -0.26000
C1096       C  0.01200159  0.26015228  0.13043240     0.02600
C1097       C  0.97783858  0.28603103  0.13853364     0.27400
C1098       C  0.98098321  0.33160495  0.13703671    -0.25200
N1099       N  0.08996285  0.34489469  0.10987857    -0.82600
H1100       H  0.07491316  0.25951728  0.11509863     0.13200
C1101       C  0.00918750  0.21215693  0.13069296     0.02600
N1102       N  0.94039313  0.26590728  0.14842393    -0.81100
H1103       H  0.95467701  0.35149705  0.14332758     0.18000
C1104       C  0.02512514  0.18914088  0.14872594    -0.26000
C1105       C  0.02499450  0.14333819  0.14891386     0.36100
C1106       C  0.00841413  0.12063812  0.13076984    -0.20000
C1107       C  0.99163928  0.14366921  0.11295738    -0.25200
C1108       C  0.99224489  0.18939936  0.11264870     0.27400
H1109       H  0.03809311  0.20698745  0.16251012     0.13200
N1110       N  0.04155084  0.11973984  0.16736571    -0.82500
H1111       H  0.97912218  0.12586568  0.09904873     0.18000
N1112       N  0.97690702  0.21286326  0.09389469    -0.81100
H1113       H  0.05258979  0.14130163  0.17934280     0.33700
H1114       H  0.01556836  0.10241046  0.17421043     0.38200
H1115       H  0.96638564  0.19124481  0.08183401     0.33600
H1116       H  0.94957827  0.23086223  0.09862451     0.30300
H1117       H  0.91848151  0.28957991  0.15389146     0.33600
H1118       H  0.92416266  0.24807638  0.13639783     0.30300
H1119       H  0.07977565  0.36004274  0.09549951     0.38200
H1120       H  0.11244500  0.32098497  0.10532249     0.33700
loop_ 
_geom_bond_atom_site_label_1 
_geom_bond_atom_site_label_2 
_geom_bond_distance 
_geom_bond_site_symmetry_2 
_ccdc_geom_bond_type 
O1           Cu9   2.010       .  S
O1           C11   1.278       .  A
O2           Cu9   2.007   1_545  S
O2           C12   1.277       .  A
O3           Cu9   2.007       .  S
O3           C13   1.278       .  A
O4           Cu9   2.014       .  S
O4           C14   1.278       .  A
O5          Cu10   1.998       .  S
O5           C14   1.278   1_655  A
O6          Cu10   2.009       .  S
O6           C13   1.278   1_655  A
O7          Cu10   2.004   1_545  S
O7           C12   1.276   1_655  A
O8          Cu10   2.011       .  S
O8           C11   1.278   1_655  A
Cu9         Cu10   2.371   1_455  S
C11        C1065   1.483       .  S
C12        C1106   1.467       .  S
C13        C1022   1.484       .  S
C14        C1050   1.489       .  S
O15         Cu23   2.010       .  S
O15          C25   1.278       .  A
O16         Cu23   2.016       .  S
O16          C26   1.279       .  A
O17         Cu23   2.013       .  S
O17          C27   1.278       .  A
O18         Cu23   2.010       .  S
O18          C28   1.278       .  A
O19         Cu24   2.003       .  S
O19          C28   1.277   1_655  A
O20         Cu24   2.000       .  S
O20          C27   1.278   1_655  A
O21         Cu24   2.003       .  S
O21          C26   1.278   1_655  A
O22         Cu24   2.008       .  S
O22          C25   1.278   1_655  A
Cu23        Cu24   2.370   1_455  S
C25        C1093   1.485       .  S
C26        C1078   1.486       .  S
C27         C953   1.488       .  S
C28         C981   1.473       .  S
O29         Cu37   2.002   1_565  S
O29          C39   1.277       .  A
O30         Cu37   2.002       .  S
O30          C40   1.277       .  A
O31         Cu37   2.005       .  S
O31          C41   1.278       .  A
O32         Cu37   2.008       .  S
O32          C42   1.278       .  A
O33         Cu38   2.005       .  S
O33          C42   1.278       .  A
O34         Cu38   1.999       .  S
O34          C41   1.276       .  A
O35         Cu38   2.014       .  S
O35          C40   1.278       .  A
O36         Cu38   2.005   1_565  S
O36          C39   1.279       .  A
Cu37        Cu38   2.368       .  S
C39         C910   1.484       .  S
C40         C925   1.482       .  S
C41         C869   1.484       .  S
C42         C854   1.485       .  S
O43         Cu51   2.005       .  S
O43          C53   1.277       .  A
O44         Cu51   2.005       .  S
O44          C54   1.278       .  A
O45         Cu51   2.000       .  S
O45          C55   1.277       .  A
O46         Cu51   2.000       .  S
O46          C56   1.276       .  A
O47         Cu52   2.016       .  S
O47          C56   1.279       .  A
O48         Cu52   2.007       .  S
O48          C55   1.277       .  A
O49         Cu52   2.014       .  S
O49          C54   1.278       .  A
O50         Cu52   2.013       .  S
O50          C53   1.279       .  A
Cu51        Cu52   2.371       .  S
C53         C785   1.488       .  S
C54         C826   1.479       .  S
C55         C897   1.475       .  S
C56         C938   1.480       .  S
O57         Cu65   2.020       .  S
O57          C67   1.279       .  A
O58         Cu65   2.006   1_545  S
O58          C68   1.278       .  A
O59         Cu65   2.000       .  S
O59          C69   1.276       .  A
O60         Cu65   2.003       .  S
O60          C70   1.277       .  A
O61         Cu66   1.998       .  S
O61          C70   1.278   1_655  A
O62         Cu66   2.010       .  S
O62          C69   1.278   1_655  A
O63         Cu66   2.009   1_545  S
O63          C68   1.278   1_655  A
O64         Cu66   2.006       .  S
O64          C67   1.278   1_655  A
Cu65        Cu66   2.371   1_455  S
C67         C729   1.486       .  S
C68         C770   1.474   1_455  S
C69        C1037   1.473       .  S
C70         C701   1.487       .  S
O71         Cu79   2.010       .  S
O71          C81   1.278       .  A
O72         Cu79   2.010       .  S
O72          C82   1.278   1_655  A
O73         Cu79   2.009       .  S
O73          C83   1.278       .  A
O74         Cu79   2.004       .  S
O74          C84   1.278   1_655  A
O75         Cu80   2.010       .  S
O75          C84   1.278       .  A
O76         Cu80   2.000       .  S
O76          C83   1.278   1_455  A
O77         Cu80   2.008       .  S
O77          C82   1.278       .  A
O78         Cu80   2.009       .  S
O78          C81   1.278   1_455  A
Cu79        Cu80   2.368   1_655  S
C81         C757   1.478       .  S
C82         C742   1.483       .  S
C83         C673   1.486       .  S
C84         C994   1.491       .  S
O85         Cu93   2.010       .  S
O85          C95   1.279       .  A
O86         Cu93   2.007   1_545  S
O86          C96   1.278       .  A
O87         Cu93   2.000       .  S
O87          C97   1.277       .  A
O88         Cu93   2.002       .  S
O88          C98   1.278   1_565  A
O89         Cu94   2.003   1_545  S
O89          C98   1.278       .  A
O90         Cu94   1.999       .  S
O90          C97   1.276       .  A
O91         Cu94   2.004   1_545  S
O91          C96   1.277       .  A
O92         Cu94   1.999       .  S
O92          C95   1.276       .  A
Cu93        Cu94   2.371       .  S
C95         C617   1.480       .  S
C96         C645   1.477       .  S
C97         C882   1.470       .  S
C98         C589   1.485   1_545  S
O99        Cu107   2.000       .  S
O99         C109   1.276       .  A
O100       Cu107   1.996       .  S
O100        C110   1.277       .  A
O101       Cu107   2.006       .  S
O101        C111   1.278       .  A
O102       Cu107   2.005       .  S
O102        C112   1.278       .  A
O103       Cu108   2.012       .  S
O103        C112   1.278       .  A
O104       Cu108   2.008       .  S
O104        C111   1.278       .  A
O105       Cu108   2.010       .  S
O105        C110   1.278       .  A
O106       Cu108   2.012       .  S
O106        C109   1.279       .  A
Cu107      Cu108   2.369       .  S
C109        C658   1.485       .  S
C110        C630   1.478       .  S
C111        C561   1.484       .  S
C112        C813   1.487       .  S
O113       Cu121   2.016       .  S
O113        C123   1.278       .  A
O114       Cu121   2.013       .  S
O114        C124   1.279   1_545  A
O115       Cu121   2.016   1_655  S
O115        C125   1.279       .  A
O116       Cu121   2.015       .  S
O116        C126   1.278       .  A
O117       Cu122   1.997       .  S
O117        C126   1.276   1_565  A
O118       Cu122   2.003   1_655  S
O118        C125   1.278   1_565  A
O119       Cu122   2.006       .  S
O119        C124   1.277       .  A
O120       Cu122   1.997       .  S
O120        C123   1.277   1_565  A
Cu121      Cu122   2.369   1_545  S
C123        C477   1.486       .  S
C124       C1009   1.490       .  S
C125        C518   1.487       .  S
C126        C533   1.474       .  S
O127       Cu135   2.011       .  S
O127        C137   1.278       .  A
O128       Cu135   2.010       .  S
O128        C138   1.278       .  A
O129       Cu135   2.005       .  S
O129        C139   1.278       .  A
O130       Cu135   2.006   1_655  S
O130        C140   1.278       .  A
O131       Cu136   1.999   1_655  S
O131        C140   1.277       .  A
O132       Cu136   1.991       .  S
O132        C139   1.275       .  A
O133       Cu136   2.003       .  S
O133        C138   1.277       .  A
O134       Cu136   2.004       .  S
O134        C137   1.278       .  A
Cu135      Cu136   2.370       .  S
C137        C966   1.487       .  S
C138        C406   1.477       .  S
C139        C449   1.476       .  S
C140        C421   1.479       .  S
O141       Cu149   2.005       .  S
O141        C151   1.278   1_545  A
O142       Cu149   2.001       .  S
O142        C152   1.278   1_545  A
O143       Cu149   2.015       .  S
O143        C153   1.280   1_545  A
O144       Cu149   2.005       .  S
O144        C154   1.278   1_545  A
O145       Cu150   2.012       .  S
O145        C154   1.278       .  A
O146       Cu150   2.011       .  S
O146        C153   1.278       .  A
O147       Cu150   2.015       .  S
O147        C152   1.279       .  A
O148       Cu150   2.009       .  S
O148        C151   1.278       .  A
Cu149      Cu150   2.369   1_545  S
C151        C546   1.480       .  S
C152        C505   1.483       .  S
C153        C841   1.494       .  S
C154        C365   1.481       .  S
O155       Cu163   2.003       .  S
O155        C165   1.277       .  A
O156       Cu163   2.001       .  S
O156        C166   1.278       .  A
O157       Cu163   2.014       .  S
O157        C167   1.280       .  A
O158       Cu163   2.008       .  S
O158        C168   1.278       .  A
O159       Cu164   1.995       .  S
O159        C168   1.276       .  A
O160       Cu164   2.000       .  S
O160        C167   1.276       .  A
O161       Cu164   1.998       .  S
O161        C166   1.276       .  A
O162       Cu164   2.000       .  S
O162        C165   1.278       .  A
Cu163      Cu164   2.367       .  S
C165        C434   1.481       .  S
C166        C462   1.481       .  S
C167        C798   1.492       .  S
C168        C337   1.480       .  S
O169       Cu177   2.006       .  S
O169        C179   1.278       .  A
O170       Cu177   2.005       .  S
O170        C180   1.278       .  A
O171       Cu177   2.008       .  S
O171        C181   1.278       .  A
O172       Cu177   2.008   1_455  S
O172        C182   1.278       .  A
O173       Cu178   2.002   1_455  S
O173        C182   1.277   1_545  A
O174       Cu178   2.012       .  S
O174        C181   1.278   1_545  A
O175       Cu178   2.001       .  S
O175        C180   1.277   1_545  A
O176       Cu178   2.008       .  S
O176        C179   1.278   1_545  A
Cu177      Cu178   2.369   1_565  S
C179        C490   1.483   1_565  S
C180        C714   1.480       .  S
C181        C281   1.482   1_565  S
C182        C322   1.490       .  S
O183       Cu191   2.011       .  S
O183        C193   1.278       .  A
O184       Cu191   2.006       .  S
O184        C194   1.279       .  A
O185       Cu191   2.009       .  S
O185        C195   1.278       .  A
O186       Cu191   2.004   1_455  S
O186        C196   1.277       .  A
O187       Cu192   2.008   1_455  S
O187        C196   1.278       .  A
O188       Cu192   2.011       .  S
O188        C195   1.278       .  A
O189       Cu192   2.007       .  S
O189        C194   1.277       .  A
O190       Cu192   2.004       .  S
O190        C193   1.278       .  A
Cu191      Cu192   2.369       .  S
C193        C393   1.486       .  S
C194        C686   1.486       .  S
C195        C225   1.486       .  S
C196        C253   1.474       .  S
O197       Cu205   2.013       .  S
O197        C207   1.279   1_545  A
O198       Cu205   2.007       .  S
O198        C208   1.278   1_545  A
O199       Cu205   2.005       .  S
O199        C209   1.278   1_545  A
O200       Cu205   2.008       .  S
O200        C210   1.277       .  A
O201       Cu206   2.001       .  S
O201        C210   1.277   1_565  A
O202       Cu206   2.007       .  S
O202        C209   1.277       .  A
O203       Cu206   2.009       .  S
O203        C208   1.278       .  A
O204       Cu206   1.995       .  S
O204        C207   1.277       .  A
Cu205      Cu206   2.375   1_545  S
C207        C602   1.481       .  S
C208        C378   1.477       .  S
C209        C309   1.473       .  S
C210        C294   1.471       .  S
O211       Cu219   2.000       .  S
O211        C221   1.277       .  A
O212       Cu219   2.005       .  S
O212        C222   1.277       .  A
O213       Cu219   2.007       .  S
O213        C223   1.277       .  A
O214       Cu219   2.012       .  S
O214        C224   1.279       .  A
O215       Cu220   2.004       .  S
O215        C224   1.277       .  A
O216       Cu220   2.007       .  S
O216        C223   1.277       .  A
O217       Cu220   2.000       .  S
O217        C222   1.277       .  A
O218       Cu220   2.001       .  S
O218        C221   1.277       .  A
Cu219      Cu220   2.374       .  S
C221        C350   1.476       .  S
C222        C574   1.475       .  S
C223        C238   1.471       .  S
C224        C266   1.476       .  S
C225        C226   1.417       .  A
C225        C230   1.408       .  A
C226        C227   1.405       .  A
C226        N231   1.438       .  S
C227        C228   1.399       .  A
C227        H232   1.084       .  S
C228        C233   1.477       .  S
C228        C229   1.407       .  A
C229        C230   1.406       .  A
C229        N234   1.438       .  S
C230        H235   1.084       .  S
N231        H251   1.045       .  S
N231        H252   1.046       .  S
C233        C236   1.402       .  A
C233        C240   1.409       .  A
N234        H249   1.046       .  S
N234        H250   1.045       .  S
C236        C237   1.405       .  A
C236        H241   1.084       .  S
C237        C238   1.410       .  A
C237        N242   1.438       .  S
C238        C239   1.402       .  A
C239        C240   1.405       .  A
C239        H243   1.084       .  S
C240        N244   1.438       .  S
N242        H245   1.046       .  S
N242        H246   1.046       .  S
N244        H247   1.046       .  S
N244        H248   1.045       .  S
C253        C254   1.412       .  A
C253        C258   1.404       .  A
C254        C255   1.405       .  A
C254        N259   1.438       .  S
C255        C256   1.401       .  A
C255        H260   1.084       .  S
C256        C261   1.475       .  S
C256        C257   1.408       .  A
C257        C258   1.405       .  A
C257        N262   1.438       .  S
C258        H263   1.084       .  S
N259        H279   1.046       .  S
N259        H280   1.046       .  S
C261        C264   1.400       .  A
C261        C268   1.409       .  A
N262        H277   1.046       .  S
N262        H278   1.044       .  S
C264        C265   1.404       .  A
C264        H269   1.084       .  S
C265        C266   1.412       .  A
C265        N270   1.438       .  S
C266        C267   1.405       .  A
C267        C268   1.406       .  A
C267        H271   1.084       .  S
C268        N272   1.438       .  S
N270        H273   1.046       .  S
N270        H274   1.046       .  S
N272        H275   1.045       .  S
N272        H276   1.045       .  S
C281        C282   1.414   1_545  A
C281        C286   1.406       .  A
C282        C283   1.405       .  A
C282        N287   1.437       .  S
C283        C284   1.399   1_565  A
C283        H288   1.084       .  S
C284        C289   1.476       .  S
C284        C285   1.407       .  A
C285        C286   1.406       .  A
C285        N290   1.438       .  S
C286        H291   1.084       .  S
N287        H307   1.044       .  S
N287        H308   1.046       .  S
C289        C292   1.400   1_545  A
C289        C296   1.410       .  A
N290        H305   1.045       .  S
N290        H306   1.045       .  S
C292        C293   1.403       .  A
C292        H297   1.084       .  S
C293        C294   1.411   1_565  A
C293        N298   1.438       .  S
C294        C295   1.402       .  A
C295        C296   1.407       .  A
C295        H299   1.084       .  S
C296        N300   1.438       .  S
N298        H301   1.046       .  S
N298        H302   1.046       .  S
N300        H303   1.046       .  S
N300        H304   1.045       .  S
C309        C310   1.411       .  A
C309        C314   1.400   1_565  A
C310        C311   1.407       .  A
C310        N315   1.438       .  S
C311        C312   1.404       .  A
C311        H316   1.084       .  S
C312        C317   1.484       .  S
C312        C313   1.412   1_565  A
C313        C314   1.402       .  A
C313        N318   1.438       .  S
C314        H319   1.084       .  S
N315        H335   1.045       .  S
N315        H336   1.046       .  S
C317        C320   1.400   1_565  A
C317        C324   1.409       .  A
N318        H333   1.045       .  S
N318        H334   1.046       .  S
C320        C321   1.403       .  A
C320        H325   1.084       .  S
C321        C322   1.418   1_545  A
C321        N326   1.438       .  S
C322        C323   1.409       .  A
C323        C324   1.406       .  A
C323        H327   1.083       .  S
C324        N328   1.438       .  S
N326        H329   1.046       .  S
N326        H330   1.045       .  S
N328        H331   1.046       .  S
N328        H332   1.045       .  S
C337        C338   1.416       .  A
C337        C342   1.405       .  A
C338        C339   1.403       .  A
C338        N343   1.438       .  S
C339        C340   1.401       .  A
C339        H344   1.084       .  S
C340        C345   1.479       .  S
C340        C341   1.409       .  A
C341        C342   1.403       .  A
C341        N346   1.438       .  S
C342        H347   1.084       .  S
N343        H363   1.045       .  S
N343        H364   1.046       .  S
C345        C348   1.402       .  A
C345        C352   1.409       .  A
N346        H361   1.046       .  S
N346        H362   1.046       .  S
C348        C349   1.403       .  A
C348        H353   1.084       .  S
C349        C350   1.413       .  A
C349        N354   1.438       .  S
C350        C351   1.404       .  A
C351        C352   1.402       .  A
C351        H355   1.084       .  S
C352        N356   1.438       .  S
N354        H357   1.046       .  S
N354        H358   1.046       .  S
N356        H359   1.046       .  S
N356        H360   1.046       .  S
C365        C366   1.414       .  A
C365        C370   1.405   1_565  A
C366        C367   1.406       .  A
C366        N371   1.438       .  S
C367        C368   1.401       .  A
C367        H372   1.084       .  S
C368        C373   1.477       .  S
C368        C369   1.409   1_565  A
C369        C370   1.405       .  A
C369        N374   1.439       .  S
C370        H375   1.084       .  S
N371        H391   1.046       .  S
N371        H392   1.046       .  S
C373        C376   1.400       .  A
C373        C380   1.410   1_565  A
N374        H389   1.045       .  S
N374        H390   1.044       .  S
C376        C377   1.404       .  A
C376        H381   1.084       .  S
C377        C378   1.412       .  A
C377        N382   1.438       .  S
C378        C379   1.404   1_565  A
C379        C380   1.407       .  A
C379        H383   1.084       .  S
C380        N384   1.438       .  S
N382        H385   1.046       .  S
N382        H386   1.046       .  S
N384        H387   1.046       .  S
N384        H388   1.044       .  S
C393        C394   1.415       .  A
C393        C398   1.407   1_655  A
C394        C395   1.405       .  A
C394        N399   1.438       .  S
C395        C396   1.403   1_655  A
C395        H400   1.084       .  S
C396        C401   1.484       .  S
C396        C397   1.409       .  A
C397        C398   1.405       .  A
C397        N402   1.438       .  S
C398        H403   1.083       .  S
N399        H419   1.046       .  S
N399        H420   1.046       .  S
C401        C404   1.403   1_455  A
C401        C408   1.410       .  A
N402        H417   1.046       .  S
N402        H418   1.046       .  S
C404        C405   1.406       .  A
C404        H409   1.084       .  S
C405        C406   1.412   1_655  A
C405        N410   1.438       .  S
C406        C407   1.404       .  A
C407        C408   1.404       .  A
C407        H411   1.084       .  S
C408        N412   1.438       .  S
N410        H413   1.046       .  S
N410        H414   1.045       .  S
N412        H415   1.045       .  S
N412        H416   1.046       .  S
C421        C422   1.413       .  A
C421        C426   1.405       .  A
C422        C423   1.404       .  A
C422        N427   1.438       .  S
C423        C424   1.403       .  A
C423        H428   1.084       .  S
C424        C429   1.482       .  S
C424        C425   1.409       .  A
C425        C426   1.402       .  A
C425        N430   1.438       .  S
C426        H431   1.084       .  S
N427        H447   1.046       .  S
N427        H448   1.046       .  S
C429        C432   1.403       .  A
C429        C436   1.409       .  A
N430        H445   1.046       .  S
N430        H446   1.045       .  S
C432        C433   1.404       .  A
C432        H437   1.084       .  S
C433        C434   1.415       .  A
C433        N438   1.438       .  S
C434        C435   1.406       .  A
C435        C436   1.403       .  A
C435        H439   1.083       .  S
C436        N440   1.438       .  S
N438        H441   1.046       .  S
N438        H442   1.045       .  S
N440        H443   1.046       .  S
N440        H444   1.046       .  S
C449        C450   1.415       .  A
C449        C454   1.403       .  A
C450        C451   1.403       .  A
C450        N455   1.438       .  S
C451        C452   1.402       .  A
C451        H456   1.084       .  S
C452        C457   1.479       .  S
C452        C453   1.410       .  A
C453        C454   1.401       .  A
C453        N458   1.438       .  S
C454        H459   1.084       .  S
N455        H475   1.045       .  S
N455        H476   1.046       .  S
C457        C460   1.401       .  A
C457        C464   1.409       .  A
N458        H473   1.046       .  S
N458        H474   1.046       .  S
C460        C461   1.402       .  A
C460        H465   1.084       .  S
C461        C462   1.416       .  A
C461        N466   1.438       .  S
C462        C463   1.407       .  A
C463        C464   1.403       .  A
C463        H467   1.084       .  S
C464        N468   1.438       .  S
N466        H469   1.046       .  S
N466        H470   1.045       .  S
N468        H471   1.046       .  S
N468        H472   1.045       .  S
C477        C478   1.416   1_455  A
C477        C482   1.406   1_545  A
C478        C479   1.407       .  A
C478        N483   1.438       .  S
C479        C480   1.404   1_655  A
C479        H484   1.084       .  S
C480        C485   1.487       .  S
C480        C481   1.409   1_545  A
C481        C482   1.402       .  A
C481        N486   1.438       .  S
C482        H487   1.084       .  S
N483        H503   1.045   1_655  S
N483        H504   1.045       .  S
C485        C488   1.404   1_445  A
C485        C492   1.410       .  A
N486        H501   1.046       .  S
N486        H502   1.046       .  S
C488        C489   1.404       .  A
C488        H493   1.084       .  S
C489        C490   1.414   1_565  A
C489        N494   1.437       .  S
C490        C491   1.406   1_655  A
C491        C492   1.405       .  A
C491        H495   1.084       .  S
C492        N496   1.438       .  S
N494        H497   1.046       .  S
N494        H498   1.044       .  S
N496        H499   1.046       .  S
N496        H500   1.046       .  S
C505        C506   1.413       .  A
C505        C510   1.405   1_565  A
C506        C507   1.407       .  A
C506        N511   1.438       .  S
C507        C508   1.404       .  A
C507        H512   1.083       .  S
C508        C513   1.487       .  S
C508        C509   1.410   1_565  A
C509        C510   1.404       .  A
C509        N514   1.438       .  S
C510        H515   1.084       .  S
N511        H531   1.046       .  S
N511        H532   1.046       .  S
C513        C516   1.404   1_565  A
C513        C520   1.409       .  A
N514        H529   1.046       .  S
N514        H530   1.045       .  S
C516        C517   1.406       .  A
C516        H521   1.084       .  S
C517        C518   1.415       .  A
C517        N522   1.438       .  S
C518        C519   1.407   1_545  A
C519        C520   1.405       .  A
C519        H523   1.083       .  S
C520        N524   1.438       .  S
N522        H525   1.046       .  S
N522        H526   1.045       .  S
N524        H527   1.046       .  S
N524        H528   1.046       .  S
C533        C534   1.413   1_545  A
C533        C538   1.403       .  A
C534        C535   1.405       .  A
C534        N539   1.438       .  S
C535        C536   1.400   1_565  A
C535        H540   1.084       .  S
C536        C541   1.475       .  S
C536        C537   1.408       .  A
C537        C538   1.405       .  A
C537        N542   1.438       .  S
C538        H543   1.084       .  S
N539        H559   1.045       .  S
N539        H560   1.045       .  S
C541        C544   1.400   1_545  A
C541        C548   1.407       .  A
N542        H557   1.046       .  S
N542        H558   1.044       .  S
C544        C545   1.406       .  A
C544        H549   1.084       .  S
C545        C546   1.414       .  A
C545        N550   1.438       .  S
C546        C547   1.406   1_565  A
C547        C548   1.404       .  A
C547        H551   1.084       .  S
C548        N552   1.438       .  S
N550        H553   1.045       .  S
N550        H554   1.046       .  S
N552        H555   1.045       .  S
N552        H556   1.045       .  S
C561        C562   1.416       .  A
C561        C566   1.407       .  A
C562        C563   1.406       .  A
C562        N567   1.438       .  S
C563        C564   1.400       .  A
C563        H568   1.084       .  S
C564        C569   1.475       .  S
C564        C565   1.406       .  A
C565        C566   1.403       .  A
C565        N570   1.438       .  S
C566        H571   1.083       .  S
N567        H587   1.046       .  S
N567        H588   1.046       .  S
C569        C572   1.400       .  A
C569        C576   1.408       .  A
N570        H585   1.046       .  S
N570        H586   1.046       .  S
C572        C573   1.403       .  A
C572        H577   1.084       .  S
C573        C574   1.413       .  A
C573        N578   1.438       .  S
C574        C575   1.405       .  A
C575        C576   1.405       .  A
C575        H579   1.084       .  S
C576        N580   1.438       .  S
N578        H581   1.046       .  S
N578        H582   1.046       .  S
N580        H583   1.046       .  S
N580        H584   1.046       .  S
C589        C590   1.416       .  A
C589        C594   1.407   1_565  A
C590        C591   1.402       .  A
C590        N595   1.438       .  S
C591        C592   1.402       .  A
C591        H596   1.084       .  S
C592        C597   1.485       .  S
C592        C593   1.411   1_565  A
C593        C594   1.405       .  A
C593        N598   1.438       .  S
C594        H599   1.083       .  S
N595        H615   1.045       .  S
N595        H616   1.046       .  S
C597        C600   1.403   1_565  A
C597        C604   1.411       .  A
N598        H613   1.046       .  S
N598        H614   1.045   1_545  S
C600        C601   1.405       .  A
C600        H605   1.083       .  S
C601        C602   1.414   1_545  A
C601        N606   1.438       .  S
C602        C603   1.405       .  A
C603        C604   1.403       .  A
C603        H607   1.084       .  S
C604        N608   1.438       .  S
N606        H609   1.045       .  S
N606        H610   1.046       .  S
N608        H611   1.046       .  S
N608        H612   1.046       .  S
C617        C618   1.416       .  A
C617        C622   1.405       .  A
C618        C619   1.405       .  A
C618        N623   1.438       .  S
C619        C620   1.401       .  A
C619        H624   1.084       .  S
C620        C625   1.478       .  S
C620        C621   1.407       .  A
C621        C622   1.403       .  A
C621        N626   1.438       .  S
C622        H627   1.083       .  S
N623        H643   1.045       .  S
N623        H644   1.046       .  S
C625        C628   1.402       .  A
C625        C632   1.407       .  A
N626        H641   1.045       .  S
N626        H642   1.046       .  S
C628        C629   1.405       .  A
C628        H633   1.084       .  S
C629        C630   1.413       .  A
C629        N634   1.438       .  S
C630        C631   1.405       .  A
C631        C632   1.402       .  A
C631        H635   1.084       .  S
C632        N636   1.438       .  S
N634        H637   1.046       .  S
N634        H638   1.046       .  S
N636        H639   1.046       .  S
N636        H640   1.046       .  S
C645        C646   1.412       .  A
C645        C650   1.405       .  A
C646        C647   1.404       .  A
C646        N651   1.438       .  S
C647        C648   1.403       .  A
C647        H652   1.084       .  S
C648        C653   1.484       .  S
C648        C649   1.411       .  A
C649        C650   1.405       .  A
C649        N654   1.438       .  S
C650        H655   1.084       .  S
N651        H671   1.046       .  S
N651        H672   1.045       .  S
C653        C656   1.402       .  A
C653        C660   1.410       .  A
N654        H669   1.046       .  S
N654        H670   1.045       .  S
C656        C657   1.405       .  A
C656        H661   1.084       .  S
C657        C658   1.417       .  A
C657        N662   1.438       .  S
C658        C659   1.405       .  A
C659        C660   1.404       .  A
C659        H663   1.083       .  S
C660        N664   1.438       .  S
N662        H665   1.046       .  S
N662        H666   1.046       .  S
N664        H667   1.046       .  S
N664        H668   1.046       .  S
C673        C674   1.416       .  A
C673        C678   1.407   1_655  A
C674        C675   1.405       .  A
C674        N679   1.438       .  S
C675        C676   1.402       .  A
C675        H680   1.084       .  S
C676        C681   1.484       .  S
C676        C677   1.410   1_655  A
C677        C678   1.404       .  A
C677        N682   1.438       .  S
C678        H683   1.083       .  S
N679        H699   1.046       .  S
N679        H700   1.045       .  S
C681        C684   1.403       .  A
C681        C688   1.409       .  A
N682        H697   1.045       .  S
N682        H698   1.046       .  S
C684        C685   1.406       .  A
C684        H689   1.084   1_655  S
C685        C686   1.417       .  A
C685        N690   1.438   1_655  S
C686        C687   1.406       .  A
C687        C688   1.403       .  A
C687        H691   1.083       .  S
C688        N692   1.438       .  S
N690        H693   1.046       .  S
N690        H694   1.045       .  S
N692        H695   1.045       .  S
N692        H696   1.046       .  S
C701        C702   1.419       .  A
C701        C706   1.407   1_455  A
C702        C703   1.405       .  A
C702        N707   1.438       .  S
C703        C704   1.401   1_455  A
C703        H708   1.084       .  S
C704        C709   1.482       .  S
C704        C705   1.408       .  A
C705        C706   1.401       .  A
C705        N710   1.438       .  S
C706        H711   1.083       .  S
N707        H727   1.046       .  S
N707        H728   1.046       .  S
C709        C712   1.402       .  A
C709        C716   1.410   1_665  A
N710        H725   1.045       .  S
N710        H726   1.046   1_565  S
C712        C713   1.402       .  A
C712        H717   1.084       .  S
C713        C714   1.412       .  A
C713        N718   1.438       .  S
C714        C715   1.406   1_665  A
C715        C716   1.405       .  A
C715        H719   1.084       .  S
C716        N720   1.438       .  S
N718        H721   1.046       .  S
N718        H722   1.046       .  S
N720        H723   1.046       .  S
N720        H724   1.046       .  S
C729        C730   1.415       .  A
C729        C734   1.406   1_455  A
C730        C731   1.409       .  A
C730        N735   1.437       .  S
C731        C732   1.403       .  A
C731        H736   1.084       .  S
C732        C737   1.482       .  S
C732        C733   1.407   1_455  A
C733        C734   1.403       .  A
C733        N738   1.438       .  S
C734        H739   1.083       .  S
N735        H755   1.046       .  S
N735        H756   1.045       .  S
C737        C740   1.402   1_455  A
C737        C744   1.408       .  A
N738        H753   1.046       .  S
N738        H754   1.046       .  S
C740        C741   1.405       .  A
C740        H745   1.084       .  S
C741        C742   1.415   1_655  A
C741        N746   1.438       .  S
C742        C743   1.407       .  A
C743        C744   1.407       .  A
C743        H747   1.084       .  S
C744        N748   1.438       .  S
N746        H749   1.046       .  S
N746        H750   1.045       .  S
N748        H751   1.045       .  S
N748        H752   1.046       .  S
C757        C758   1.413       .  A
C757        C762   1.405   1_655  A
C758        C759   1.405       .  A
C758        N763   1.438       .  S
C759        C760   1.400       .  A
C759        H764   1.084       .  S
C760        C765   1.477       .  S
C760        C761   1.408   1_655  A
C761        C762   1.406       .  A
C761        N766   1.438       .  S
C762        H767   1.084       .  S
N763        H783   1.046       .  S
N763        H784   1.046       .  S
C765        C768   1.401       .  A
C765        C772   1.408   1_655  A
N766        H781   1.045       .  S
N766        H782   1.045       .  S
C768        C769   1.407       .  A
C768        H773   1.084       .  S
C769        C770   1.413       .  A
C769        N774   1.438       .  S
C770        C771   1.402   1_655  A
C771        C772   1.403       .  A
C771        H775   1.084       .  S
C772        N776   1.438       .  S
N774        H777   1.046       .  S
N774        H778   1.046       .  S
N776        H779   1.045       .  S
N776        H780   1.045       .  S
C785        C786   1.418       .  A
C785        C790   1.407       .  A
C786        C787   1.406       .  A
C786        N791   1.438       .  S
C787        C788   1.399       .  A
C787        H792   1.084       .  S
C788        C793   1.479       .  S
C788        C789   1.407       .  A
C789        C790   1.405       .  A
C789        N794   1.438       .  S
C790        H795   1.083       .  S
N791        H811   1.045       .  S
N791        H812   1.046       .  S
C793        C796   1.399       .  A
C793        C800   1.406       .  A
N794        H809   1.045       .  S
N794        H810   1.046       .  S
C796        C797   1.405       .  A
C796        H801   1.084       .  S
C797        C798   1.421       .  A
C797        N802   1.438       .  S
C798        C799   1.409       .  A
C799        C800   1.405       .  A
C799        H803   1.083       .  S
C800        N804   1.438       .  S
N802        H805   1.045       .  S
N802        H806   1.046       .  S
N804        H807   1.045       .  S
N804        H808   1.046       .  S
C813        C814   1.416       .  A
C813        C818   1.406       .  A
C814        C815   1.407       .  A
C814        N819   1.438       .  S
C815        C816   1.403       .  A
C815        H820   1.084       .  S
C816        C821   1.487   1_556  S
C816        C817   1.410       .  A
C817        C818   1.404       .  A
C817        N822   1.438       .  S
C818        H823   1.083       .  S
N819        H839   1.045       .  S
N819        H840   1.046       .  S
C821        C824   1.405       .  A
C821        C828   1.411       .  A
N822        H837   1.046       .  S
N822        H838   1.046       .  S
C824        C825   1.407       .  A
C824        H829   1.084       .  S
C825        C826   1.413       .  A
C825        N830   1.438       .  S
C826        C827   1.403       .  A
C827        C828   1.404       .  A
C827        H831   1.084       .  S
C828        N832   1.438       .  S
N830        H833   1.046       .  S
N830        H834   1.046       .  S
N832        H835   1.045       .  S
N832        H836   1.046       .  S
C841        C842   1.420       .  A
C841        C846   1.409   1_565  A
C842        C843   1.408       .  A
C842        N847   1.438       .  S
C843        C844   1.400   1_565  A
C843        H848   1.084       .  S
C844        C849   1.483       .  S
C844        C845   1.407       .  A
C845        C846   1.405       .  A
C845        N850   1.438       .  S
C846        H851   1.083       .  S
N847        H867   1.046       .  S
N847        H868   1.046       .  S
C849        C852   1.402       .  A
C849        C856   1.408   1_545  A
N850        H865   1.045       .  S
N850        H866   1.046       .  S
C852        C853   1.407       .  A
C852        H857   1.084       .  S
C853        C854   1.416       .  A
C853        N858   1.438       .  S
C854        C855   1.407   1_545  A
C855        C856   1.404       .  A
C855        H859   1.083       .  S
C856        N860   1.438       .  S
N858        H861   1.046       .  S
N858        H862   1.046       .  S
N860        H863   1.045       .  S
N860        H864   1.046       .  S
C869        C870   1.418   1_545  A
C869        C874   1.408       .  A
C870        C871   1.402       .  A
C870        N875   1.438       .  S
C871        C872   1.399   1_565  A
C871        H876   1.084       .  S
C872        C877   1.475   1_554  S
C872        C873   1.406       .  A
C873        C874   1.403       .  A
C873        N878   1.438       .  S
C874        H879   1.083       .  S
N875        H895   1.045   1_565  S
N875        H896   1.046       .  S
C877        C880   1.402   1_545  A
C877        C884   1.408       .  A
N878        H893   1.046       .  S
N878        H894   1.046       .  S
C880        C881   1.405       .  A
C880        H885   1.084       .  S
C881        C882   1.411       .  A
C881        N886   1.438       .  S
C882        C883   1.402   1_565  A
C883        C884   1.400       .  A
C883        H887   1.084       .  S
C884        N888   1.438       .  S
N886        H889   1.046       .  S
N886        H890   1.046       .  S
N888        H891   1.045       .  S
N888        H892   1.046       .  S
C897        C898   1.412       .  A
C897        C902   1.404       .  A
C898        C899   1.402       .  A
C898        N903   1.438       .  S
C899        C900   1.401       .  A
C899        H904   1.084       .  S
C900        C905   1.481       .  S
C900        C901   1.410       .  A
C901        C902   1.406       .  A
C901        N906   1.438       .  S
C902        H907   1.084       .  S
N903        H923   1.046       .  S
N903        H924   1.045       .  S
C905        C908   1.401       .  A
C905        C912   1.409       .  A
N906        H921   1.046       .  S
N906        H922   1.046       .  S
C908        C909   1.406       .  A
C908        H913   1.084       .  S
C909        C910   1.417       .  A
C909        N914   1.438       .  S
C910        C911   1.406       .  A
C911        C912   1.402       .  A
C911        H915   1.083       .  S
C912        N916   1.438       .  S
N914        H917   1.046       .  S
N914        H918   1.046       .  S
N916        H919   1.046       .  S
N916        H920   1.046       .  S
C925        C926   1.415       .  A
C925        C930   1.407       .  A
C926        C927   1.404       .  A
C926        N931   1.438       .  S
C927        C928   1.400       .  A
C927        H932   1.084       .  S
C928        C933   1.480       .  S
C928        C929   1.408       .  A
C929        C930   1.407       .  A
C929        N934   1.438       .  S
C930        H935   1.084       .  S
N931        H951   1.045       .  S
N931        H952   1.045       .  S
C933        C936   1.401       .  A
C933        C940   1.409       .  A
N934        H949   1.046       .  S
N934        H950   1.046       .  S
C936        C937   1.406       .  A
C936        H941   1.084       .  S
C937        C938   1.415       .  A
C937        N942   1.438       .  S
C938        C939   1.404       .  A
C939        C940   1.405       .  A
C939        H943   1.084       .  S
C940        N944   1.438       .  S
N942        H945   1.046       .  S
N942        H946   1.045       .  S
N944        H947   1.045       .  S
N944        H948   1.046       .  S
C953        C954   1.418       .  A
C953        C958   1.407   1_455  A
C954        C955   1.408       .  A
C954        N959   1.438       .  S
C955        C956   1.401       .  A
C955        H960   1.084       .  S
C956        C961   1.480       .  S
C956        C957   1.406   1_455  A
C957        C958   1.402       .  A
C957        N962   1.438       .  S
C958        H963   1.083       .  S
N959        H979   1.046       .  S
N959        H980   1.046       .  S
C961        C964   1.401       .  A
C961        C968   1.407       .  A
N962        H977   1.045       .  S
N962        H978   1.046       .  S
C964        C965   1.405       .  A
C964        H969   1.084       .  S
C965        C966   1.417       .  A
C965        N970   1.438   1_455  S
C966        C967   1.408       .  A
C967        C968   1.404       .  A
C967        H971   1.083       .  S
C968        N972   1.438       .  S
N970        H973   1.046       .  S
N970        H974   1.045       .  S
N972        H975   1.046       .  S
N972        H976   1.046       .  S
C981        C982   1.410   1_455  A
C981        C986   1.401       .  A
C982        C983   1.404       .  A
C982        N987   1.438       .  S
C983        C984   1.405   1_655  A
C983        H988   1.083       .  S
C984        C989   1.488   1_554  S
C984        C985   1.414       .  A
C985        C986   1.405       .  A
C985        N990   1.438       .  S
C986        H991   1.084       .  S
N987       H1007   1.046       .  S
N987       H1008   1.046       .  S
C989        C992   1.402       .  A
C989        C996   1.411   1_455  A
N990       H1005   1.046       .  S
N990       H1006   1.046       .  S
C992        C993   1.405       .  A
C992        H997   1.083       .  S
C993        C994   1.418       .  A
C993        N998   1.438       .  S
C994        C995   1.408   1_455  A
C995        C996   1.405       .  A
C995        H999   1.083       .  S
C996       N1000   1.438       .  S
N998       H1001   1.045       .  S
N998       H1002   1.046       .  S
N1000      H1003   1.046       .  S
N1000      H1004   1.046       .  S
C1009      C1010   1.419   1_455  A
C1009      C1014   1.408   1_565  A
C1010      C1011   1.406       .  A
C1010      N1015   1.438       .  S
C1011      C1012   1.399   1_655  A
C1011      H1016   1.084       .  S
C1012      C1017   1.478       .  S
C1012      C1013   1.406   1_565  A
C1013      C1014   1.405       .  A
C1013      N1018   1.438       .  S
C1014      H1019   1.083       .  S
N1015      H1035   1.046       .  S
N1015      H1036   1.046       .  S
C1017      C1020   1.399   1_465  A
C1017      C1024   1.407       .  A
N1018      H1033   1.045       .  S
N1018      H1034   1.046       .  S
C1020      C1021   1.405       .  A
C1020      H1025   1.084       .  S
C1021      C1022   1.416   1_645  A
C1021      N1026   1.438       .  S
C1022      C1023   1.407       .  A
C1023      C1024   1.406       .  A
C1023      H1027   1.083       .  S
C1024      N1028   1.438       .  S
N1026      H1029   1.046       .  S
N1026      H1030   1.046       .  S
N1028      H1031   1.045       .  S
N1028      H1032   1.046       .  S
C1037      C1038   1.409   1_455  A
C1037      C1042   1.403   1_565  A
C1038      C1039   1.404       .  A
C1038      N1043   1.438       .  S
C1039      C1040   1.404   1_655  A
C1039      H1044   1.084       .  S
C1040      C1045   1.482   1_556  S
C1040      C1041   1.410   1_565  A
C1041      C1042   1.405       .  A
C1041      N1046   1.438       .  S
C1042      H1047   1.084       .  S
N1043      H1063   1.046       .  S
N1043      H1064   1.046       .  S
C1045      C1048   1.402       .  A
C1045      C1052   1.407   1_465  A
N1046      H1061   1.045       .  S
N1046      H1062   1.046       .  S
C1048      C1049   1.406       .  A
C1048      H1053   1.084       .  S
C1049      C1050   1.418       .  A
C1049      N1054   1.438       .  S
C1050      C1051   1.408   1_465  A
C1051      C1052   1.403       .  A
C1051      H1055   1.083       .  S
C1052      N1056   1.438       .  S
N1054      H1057   1.046       .  S
N1054      H1058   1.045   1_565  S
N1056      H1059   1.046       .  S
N1056      H1060   1.046       .  S
C1065      C1066   1.415   1_455  A
C1065      C1070   1.405       .  A
C1066      C1067   1.406       .  A
C1066      N1071   1.438       .  S
C1067      C1068   1.403   1_655  A
C1067      H1072   1.084       .  S
C1068      C1073   1.485       .  S
C1068      C1069   1.409       .  A
C1069      C1070   1.405       .  A
C1069      N1074   1.438       .  S
C1070      H1075   1.084       .  S
N1071      H1091   1.045       .  S
N1071      H1092   1.045       .  S
C1073      C1076   1.403       .  A
C1073      C1080   1.409   1_455  A
N1074      H1089   1.046       .  S
N1074      H1090   1.046       .  S
C1076      C1077   1.408       .  A
C1076      H1081   1.084       .  S
C1077      C1078   1.416       .  A
C1077      N1082   1.438       .  S
C1078      C1079   1.406   1_455  A
C1079      C1080   1.404       .  A
C1079      H1083   1.083       .  S
C1080      N1084   1.438       .  S
N1082      H1085   1.046       .  S
N1082      H1086   1.045       .  S
N1084      H1087   1.045       .  S
N1084      H1088   1.046       .  S
C1093      C1094   1.416       .  A
C1093      C1098   1.407   1_455  A
C1094      C1095   1.405       .  A
C1094      N1099   1.438       .  S
C1095      C1096   1.399       .  A
C1095      H1100   1.084       .  S
C1096      C1101   1.476       .  S
C1096      C1097   1.406   1_455  A
C1097      C1098   1.405       .  A
C1097      N1102   1.438       .  S
C1098      H1103   1.083       .  S
N1099      H1119   1.046       .  S
N1099      H1120   1.046       .  S
C1101      C1104   1.402       .  A
C1101      C1108   1.409   1_455  A
N1102      H1117   1.046       .  S
N1102      H1118   1.045       .  S
C1104      C1105   1.406       .  A
C1104      H1109   1.084       .  S
C1105      C1106   1.409       .  A
C1105      N1110   1.438       .  S
C1106      C1107   1.401   1_455  A
C1107      C1108   1.404       .  A
C1107      H1111   1.084       .  S
C1108      N1112   1.438       .  S
N1110      H1113   1.046       .  S
N1110      H1114   1.046       .  S
N1112      H1115   1.045       .  S
N1112      H1116   1.045       .  S
